Mass spectrum: FD and C Green No. 1; ESI-QTOF; MS2; CE: 10; [M+2H]+
Name: FD and C Green No. 1
Name: DTXSID5048001
Formula: C37H36N2O6S2
Exact mass: 668.201479
SMILES: CCN(CC1=CC(=CC=C1)S(O)(=O)=O)C1=CC=C(C=C1)C(C1=CC=CC=C1)=C1C=CC(C=C1)=[N+](CC)CC1=CC(=CC=C1)S([O-])(=O)=O
InChI: InChI=1S/C37H36N2O6S2/c1-3-38(26-28-10-8-14-35(24-28)46(40,41)42)33-20-16-31(17-21-33)37(30-12-6-5-7-13-30)32-18-22-34(23-19-32)39(4-2)27-29-11-9-15-36(25-29)47(43,44)45/h5-25H,3-4,26-27H2,1-2H3,(H-,40,41,42,43,44,45)
Instrument type: ESI-QTOF
Ms type: MS2
Ion mode: POSITIVE
Ionization: ESI
Collision energy: 10
Precursor m/z: 670.2165798406
Precursor type: [M+2H]+
m/z	relative intensity
669.208755	16
670.21658	999
