Mass spectrum: 1,1-(1,1-Dimethyl-3-methylene-1,3-propanediyl)bis[benzene]; GC-EI-FT; MS; Positive
Name: 1,1-(1,1-Dimethyl-3-methylene-1,3-propanediyl)bis[benzene]
Name: 2,4-Diphenyl-4-methyl-1-pentene
Class: Non-Natural Product; Industrial Chemical
Formula: C18H20
Exact mass: 236.15650
SMILES: CC(C)(CC(=C)C1=CC=CC=C1)C2=CC=CC=C2
InChI: InChI=1S/C18H20/c1-15(16-10-6-4-7-11-16)14-18(2,3)17-12-8-5-9-13-17/h4-13H,1,14H2,2-3H3
Instrument: Trace 1310 GC, Thermo Scientific; Q Exactive Orbitrap, Thermo Scientific
Instrument type: GC-EI-FT
Ms type: MS
Ion mode: POSITIVE
Retention time: 8.57
Base peak: 119.0855
m/z	relative intensity
57.52687	2
63.02295	2
74.01516	2
76.03082	4
79.05424	45
89.03861	10
91.05424	659
92.0576	51
95.04922	2
102.04646	14
115.05424	104
117.0699	55
119.06151	3
119.08554	999
120.08892	98
126.04656	1
128.06209	17
142.07781	3
145.1012	56
176.06206	2
178.0777	9
179.08551	6
202.07768	5
203.08548	4
221.13238	1
