Mass spectrum: Carbazole; GC-EI-FT; MS; Positive
Name: Carbazole
Name: 9H-carbazole
Class: Natural Product 
Formula: C12H9N
Exact mass: 167.07350
SMILES: C1=CC=C2C(=C1)C3=CC=CC=C3N2
InChI: InChI=1S/C12H9N/c1-3-7-11-9(5-1)10-6-2-4-8-12(10)13-11/h1-8,13H
Instrument: Trace 1310 GC, Thermo Scientific; Q Exactive Orbitrap, Thermo Scientific
Instrument type: GC-EI-FT
Ms type: MS
Ion mode: POSITIVE
Retention time: 8.811882
Base peak: 167.0729
m/z	relative intensity
62.01517	4
69.5269	9
74.01515	6
75.02299	7
76.03082	4
82.52843	7
83.53625	63
86.01514	7
87.02299	13
89.03861	20
91.05428	2
98.01518	2
110.0152	2
113.0386	44
115.05429	24
125.03864	1
137.03865	19
139.05424	195
140.04948	143
164.04945	34
166.06508	270
167.07286	999
168.07628	129
