Mass spectrum: PCB-189; GC-EI-FT; MS; Positive
Name: PCB-189
Name: 2,3,3',4,4',5,5'-Heptachlorobiphenyl
Class: Non-Natural Product; PCB
Formula: C12H3Cl7
Exact mass: 391.80544
SMILES: C1=C(C=C(C(=C1Cl)Cl)Cl)C2=CC(=C(C(=C2Cl)Cl)Cl)Cl
InChI: InChI=1S/C12H3Cl7/c13-6-1-4(2-7(14)10(6)17)5-3-8(15)11(18)12(19)9(5)16/h1-3H
Instrument: Trace 1310 GC, Thermo Scientific; Q Exactive Orbitrap, Thermo Scientific
Instrument type: GC-EI-FT
Ms type: MS
Ion mode: POSITIVE
Base peak: 323.8641
m/z	relative intensity
52.01818	4
52.0308	12
53.03864	1
54.04639	6
55.04173	7
56.04948	12
56.0621	26
58.04137	4
58.0733	10
61.00727	30
61.02837	3
62.0151	11
63.02295	10
63.96131	10
64.03082	7
64.96925	2
65.03856	5
67.04169	6
67.05423	37
68.0257	2
68.06211	7
68.99479	4
69.02093	5
70.06517	7
70.07778	14
71.01281	2
71.04912	3
71.98784	6
72.05705	3
73.00741	90
73.02851	3
73.51117	33
74.01523	39
75.02616	4
77.03858	29
78.04202	2
78.04638	23
79.04179	3
79.05422	15
80.06213	7
81.04475	7
81.06985	98
82.05257	2
83.03663	3
83.08562	17
83.97616	32
83.9995	57
84.04443	10
84.0808	6
84.984	9
85.00734	78
85.02842	13
85.06477	5
85.97329	10
86.01502	49
87.04406	8
89.03855	4
89.5062	6
89.98795	41
90.49182	72
90.99564	39
91.04178	2
91.05415	77
91.4903	18
92.03091	26
92.05769	6
92.06222	6
93.07004	67
94.07782	19
94.96826	16
95.08562	39
95.97607	23
96.0041	26
96.08087	6
96.09326	15
96.99368	1
97.00742	17
97.02852	10
97.0521	2
97.10116	20
98.01527	67
98.03631	4
98.06024	3
98.07278	5
99.02306	16
99.04424	1
99.06803	5
100.05195	6
100.99287	15
102.04636	3
102.96677	3
103.05431	14
104.02563	1
104.04932	5
105.03371	4
105.06554	6
105.06989	22
105.93732	5
106.06507	5
106.07763	10
106.94512	31
107.08568	79
107.47237	24
107.97611	165
107.99962	45
108.09335	19
108.48017	57
108.94213	25
108.98402	76
109.00749	114
109.02854	3
109.1013	95
109.4787	36
109.97311	56
110.0152	62
110.07253	2
110.10445	15
110.10912	20
110.47711	5
110.98113	12
111.01848	18
111.06809	5
111.11684	7
111.9522	5
112.01549	3
114.04667	9
114.06759	5
115.00305	10
115.05438	20
115.07556	5
115.49875	34
116.05772	5
116.06214	6
117.05725	9
117.06982	34
117.93736	25
118.03734	9
118.94489	10
119.0602	1
119.93442	19
119.97604	27
119.99969	87
120.05718	3
120.09348	3
120.94206	14
120.96526	4
120.97714	4
121.00745	52
121.02859	6
121.10108	111
121.9733	10
122.01527	85
122.10463	9
122.10893	18
122.95849	14
123.0079	3
123.02291	19
123.08042	1
123.11674	10
124.01573	2
124.06318	4
124.0884	2
124.11214	13
124.12031	5
125.05997	2
125.46061	35
125.96447	307
125.99174	8
126.03118	5
126.04646	1
126.4664	60
126.96316	308
127.46487	43
127.96178	81
128.04956	9
128.95998	10
129.06575	9
129.07011	40
130.07787	12
130.94481	45
131.07277	4
131.08568	49
131.94367	20
131.98476	153
131.9994	41
132.04868	16
132.08098	13
132.09343	13
132.92271	1
132.94205	14
133.01366	59
133.0649	5
133.10141	64
133.47757	11
133.98175	65
134.01549	12
134.0363	3
134.06004	4
134.10924	17
134.95377	8
134.9807	29
134.9929	5
135.01059	5
135.0228	12
135.04436	6
135.06238	4
135.11676	45
135.96191	12
136.05174	3
136.12033	3
136.12459	8
136.96033	2
137.13255	28
137.95889	10
138.10425	2
140.04953	9
140.90602	16
141.07001	4
141.93732	44
142.01898	9
142.07762	5
142.90326	13
142.94502	212
143.00784	1
143.03659	3
143.07303	4
143.0855	23
143.10655	2
143.44934	45
143.91621	5
143.94359	220
143.97592	45
143.9996	88
144.04416	6
144.09337	8
144.44786	28
144.94188	156
144.98407	26
145.00742	80
145.05194	4
145.06464	2
145.10121	5
145.44604	17
145.9406	42
145.96852	17
146.01494	373
146.05991	6
146.07266	7
146.93877	15
147.02287	162
147.04394	1
147.06555	7
147.08029	3
147.9572	23
148.02638	31
148.052	3
148.12454	2
149.02316	37
149.09589	2
149.13258	25
150.04619	5
150.1355	10
150.46735	43
150.93344	1
150.96233	45
151.08682	2
151.14813	5
151.46578	17
151.96976	23
152.45402	14
152.94873	18
152.9594	8
153.453	14
153.91415	15
154.06233	1
154.07773	10
154.94513	18
155.97603	67
156.09323	4
156.98413	43
157.10135	18
157.45169	2
157.97307	4
157.99173	18
158.10475	2
158.98114	11
159.08017	2
159.11679	20
159.47286	9
160.08853	3
160.93332	453
160.95409	9
161.13237	30
161.43524	89
161.93173	767
161.96818	2
162.1398	2
162.43329	104
162.93051	486
162.96964	17
163.1479	9
163.43228	53
163.92905	174
164.43033	8
164.92766	22
164.94931	3
164.9857	6
165.06992	9
165.12735	5
165.93742	18
167.01733	11
167.03374	5
167.08557	3
167.45041	2
167.93391	15
167.97597	10
168.00694	15
168.08937	6
168.09346	10
168.44908	16
168.98828	17
169.10098	5
170.09663	5
170.10913	6
170.43349	5
171.11681	7
172.08797	4
172.12433	6
174.1398	4
175.11137	3
175.96136	8
177.91374	49
178.41786	61
178.91238	76
178.96448	5
179.0012	1
179.4164	122
179.9108	71
179.97624	48
180.02078	6
180.41501	80
180.90942	38
180.96103	16
180.98389	83
181.06493	1
181.41356	43
181.91524	17
181.97319	18
181.99165	367
182.10901	6
182.41208	6
182.95738	4
182.98086	29
182.99524	65
183.11688	9
183.98903	123
184.99234	16
185.09636	7
185.13231	7
187.1479	16
189.16402	7
189.99054	11
191.00092	25
191.1795	3
191.95302	49
192.09355	4
192.98044	13
192.99762	8
193.94946	30
193.9799	1
194.10902	2
194.99596	2
195.02153	7
195.11649	5
195.90234	79
196.12463	6
196.40353	2
196.90091	168
197.40224	11
197.89891	149
198.40114	22
198.8978	69
199.1478	10
199.8958	31
200.08249	2
201.1638	17
202.07797	8
202.41913	15
202.92091	36
202.94488	3
203.17943	9
203.41744	14
203.91913	4
203.91991	27
204.91821	33
204.96065	11
205.01657	8
205.10167	4
205.92625	29
207.0322	102
207.1017	2
208.03133	15
209.01193	7
209.02887	7
209.13194	3
211.14854	3
212.94574	8
214.92148	13
215.17973	15
215.95256	178
216.96098	214
217.94972	94
217.96878	45
218.95744	114
219.94652	11
219.96578	26
220.95483	17
221.08446	6
225.04298	3
225.91327	5
226.04178	3
226.92166	7
226.98956	11
227.17964	6
227.92944	9
229.00082	2
229.19508	7
230.99817	12
231.21028	6
234.97168	14
236.96861	11
237.89079	21
239.88806	31
240.46922	5
241.88435	18
243.21127	10
244.96728	4
248.98856	10
249.91257	9
250.92165	36
251.9296	472
252.91869	41
252.93253	60
253.92648	474
254.91626	14
254.9292	54
254.96323	2
255.92412	142
256.92676	11
257.2265	10
257.9209	14
261.89105	7
263.88696	11
263.96646	10
263.96991	5
264.9635	5
265.88486	9
265.96756	31
266.99957	5
267.96432	3
268.99609	2
270.92911	4
281.0517	22
282.04953	8
283.04843	7
285.89114	82
286.89798	111
287.88767	106
287.9072	22
288.89609	118
289.88534	42
289.90356	33
290.89334	69
291.90066	15
292.88946	14
293.89685	2
300.93503	7
301.92493	12
301.9433	16
302.9328	8
303.92126	5
321.86682	646
322.87009	84
323.86414	999
324.86258	11
324.86731	101
325.86121	611
326.86398	81
326.96564	2
327.8576	200
328.86182	26
329.85486	26
341.01822	6
343.01446	5
355.06894	3
356.83682	12
357.82468	17
357.84286	25
358.83307	20
359.8219	6
359.84045	44
360.82956	18
361.83814	28
363.83334	12
365.32016	49
366.32272	15
368.87595	9
370.87454	6
371.88126	16
373.87875	5
391.80521	277
392.80777	40
393.80222	540
394.80438	55
395.79977	546
396.80298	51
397.79575	274
398.7984	28
399.79401	90
400.79733	12
401.78964	17
403.84451	7
404.83914	4
408.3747	3
409.83612	34
411.83344	17
413.83002	8
