Mass spectrum: PCB-118; GC-EI-FT; MS; Positive
Name: PCB-118
Name: 2,3',4,4',5-Pentachlorobiphenyl
Class: Non-Natural Product; PCB
Formula: C12H5Cl5
Exact mass: 323.88339
SMILES: C1=CC(=C(C=C1C2=CC(=C(C=C2Cl)Cl)Cl)Cl)Cl
InChI: InChI=1S/C12H5Cl5/c13-8-2-1-6(3-10(8)15)7-4-11(16)12(17)5-9(7)14/h1-5H
Instrument: Trace 1310 GC, Thermo Scientific; Q Exactive Orbitrap, Thermo Scientific
Instrument type: GC-EI-FT
Ms type: MS
Ion mode: POSITIVE
Retention time: 17.60422
Base peak: 325.8799
m/z	relative intensity
52.03085	2
53.03861	8
54.04649	3
56.06207	11
57.06988	22
59.04915	2
60.0206	4
61.00738	16
62.01519	4
63.02288	5
63.48487	6
63.96143	4
65.03855	4
67.05419	3
68.06207	2
69.0574	2
70.04141	2
72.98395	5
73.00737	13
73.06483	2
73.5113	15
74.01519	74
75.02298	30
76.03078	4
77.03854	3
78.04652	8
78.99556	5
79.04172	2
79.05418	15
80.9702	8
81.46812	12
81.96745	2
82.0414	3
83.08559	2
83.97617	31
83.99953	14
84.08075	2
84.98398	18
85.00729	42
85.10121	1
85.97305	7
86.0152	39
86.0362	3
87.02304	12
87.04402	1
88.9511	3
90.4918	8
90.99562	5
91.49966	14
92.00342	110
92.50514	12
93.00211	41
93.50375	4
94.07777	2
95.9763	8
96.00431	3
96.0207	1
96.04446	2
96.08081	2
96.09345	2
96.98414	27
97.0159	12
97.10134	2
97.51969	2
98.01517	82
98.03625	2
98.06022	2
99.02326	56
99.11698	2
100.02641	2
101.00864	1
102.00071	2
102.04658	3
103.05425	6
104.02566	2
105.06985	8
106.04215	2
106.9451	10
107.05055	1
107.08562	2
107.97607	32
107.99957	8
108.94211	9
108.98392	143
109.0074	17
109.48574	23
109.95509	3
109.98267	88
110.01518	25
110.98107	24
111.02288	20
113.03854	2
114.04664	3
114.96299	6
115.00404	13
117.05715	2
117.98915	4
118.07763	6
118.94521	7
119.99958	21
120.09364	1
120.94204	3
120.98417	16
121.00726	20
121.0649	1
122.01523	83
122.07271	3
122.09663	1
122.98115	1
123.00751	2
123.02286	82
123.04412	1
123.08049	3
123.49107	13
124.02645	20
124.12473	2
124.48957	6
125.00816	5
125.96439	11
126.04637	1
126.46857	7
126.9723	278
127.47406	46
127.971	306
128.4724	39
128.96938	93
129.47124	13
129.96797	9
130.06512	3
130.07774	6
130.94519	7
130.99136	3
131.07315	3
131.0856	6
131.9762	31
132.49077	5
132.9231	1
132.9926	25
133.01356	10
133.97342	14
133.99086	6
134.01546	7
134.96973	4
134.98949	3
135.02318	4
135.98828	3
137.0387	15
137.05971	2
139.05408	2
140.00284	2
140.47163	6
141.47008	1
141.494	3
142.01892	2
142.078	3
142.94496	7
143.95279	65
143.97595	5
143.9996	10
144.05719	2
144.08086	2
144.45708	26
144.95114	99
144.98399	17
145.00738	8
145.06502	2
145.45552	32
145.94995	43
146.01531	57
146.45389	13
146.93864	13
146.99939	25
147.02284	91
147.96547	5
148.03067	133
148.99672	8
149.03867	239
150.04217	42
151.0544	4
151.97023	2
152.47414	5
154.0777	2
155.97601	5
156.9608	5
156.98404	19
157.06488	2
157.10142	2
157.99162	22
158.05565	7
158.96658	1
158.98111	6
158.99939	23
159.98908	5
160.07111	3
160.95406	1
160.9968	6
161.07902	22
161.94098	54
162.08659	10
162.44269	8
162.93993	97
163.05443	1
163.14833	2
163.44119	7
163.93793	53
164.43991	8
164.93678	16
167.04915	11
167.96129	20
168.05307	2
168.45836	2
168.95985	26
168.98824	4
169.0649	1
169.45668	1
169.95856	14
169.95915	15
170.45494	2
170.95769	11
170.99968	6
171.02968	3
171.96567	15
172.95508	2
172.96668	4
173.13222	1
176.06221	2
176.98547	5
177.04489	7
179.92938	7
179.99234	6
180.96098	9
180.98384	3
181.10152	4
181.92639	7
181.96854	7
181.99161	39
182.95735	3
182.99983	113
183.96558	5
183.98901	16
184.00771	662
184.99699	43
185.01051	73
186.00446	212
187.00783	21
187.94672	1
189.99049	1
191.00098	7
191.08514	1
191.14328	2
191.95285	6
192.96095	15
193.05017	3
193.96816	30
194.03207	2
194.95793	7
195.03976	12
195.96547	16
197.03653	1
201.00992	7
203.92979	54
204.00177	5
204.9606	3
205.92615	51
207.10245	2
207.92377	10
211.00613	4
213.95325	3
215.95074	4
216.96085	8
217.96852	158
218.95807	4
218.97642	102
219.96568	107
219.97974	15
220.9735	60
221.96288	12
221.97627	10
222.9709	9
226.0421	1
227.9294	6
229.92688	9
231.00281	4
231.01685	11
232.02466	2
236.98715	4
238.98412	2
240.45215	2
246.98273	32
248.98006	25
252.93787	5
253.94472	460
254.93477	11
254.9489	52
255.9426	432
256.9454	46
257.9397	142
258.94308	18
259.93668	16
267.98303	19
271.97678	2
287.90582	11
288.91394	7
289.90341	22
290.91147	10
291.9006	5
291.91925	12
292.90823	4
293.91571	6
301.96155	1
303.70804	1
303.9411	3
303.95969	2
323.88266	643
324.88605	77
324.98666	1
325.87985	999
326.88306	102
327.87653	641
328.8808	68
329.87384	203
330.87778	24
331.87174	32
332.87497	5
334.91983	5
336.91724	8
338.91415	21
340.91043	3
355.07068	3
