Mass spectrum: 10:2-FTI; GC-EI-FT; MS; Positive
Name: 10:2-FTI
Name: 1H,1H,2H,2H-Perfluorododecyl iodide
Class: Non-Natural Product; Fluorinated alkyl iodide
Formula: C12H4F21I
Exact mass: 673.90224
SMILES: C(CI)C(C(C(C(C(C(C(C(C(C(F)(F)F)(F)F)(F)F)(F)F)(F)F)(F)F)(F)F)(F)F)(F)F)(F)F
InChI: InChI=1S/C12H4F21I/c13-3(14,1-2-34)4(15,16)5(17,18)6(19,20)7(21,22)8(23,24)9(25,26)10(27,28)11(29,30)12(31,32)33/h1-2H2
Instrument: Thermo Scientific Q Exactive GC Hybrid Quadrupol-Orbitrap
Instrument type: GC-EI-FT
Ms type: MS
Ion mode: POSITIVE
Base peak: 77.01976
m/z	relative intensity
51.00412	100
52.0075	2
56.00575	1
57.01355	17
59.02919	38
64.01196	8
65.01972	233
66.02312	6
66.99902	2
68.9843	2
68.99468	820
69.00531	2
69.99808	11
73.99628	2
74.98774	3
75.00414	46
76.01195	8
77.00753	2
77.01976	999
77.03861	2
78.02314	67
79.03542	34
80.03876	1
80.99471	3
82.00253	4
83.01035	11
88.01198	14
89.01976	91
90.02765	10
92.99475	60
93.01475	17
93.99812	4
95.01035	163
96.01374	5
96.98967	75
97.02608	7
97.99304	1
99.0042	2
99.99309	183
101.001	10
101.01983	8
106.00259	4
107.01039	15
108.0182	61
109.02601	138
110.02939	7
111.00531	4
111.99313	13
113.00089	182
114.00434	6
115.01657	152
116.01997	5
116.99586	25
118.99148	483
119.01039	51
119.9949	12
120.01824	9
121.02602	2
123.99314	6
125.00098	4
125.02092	4
126.00875	11
126.90389	380
127.01653	187
127.91172	437
128.01997	8
128.91959	5
128.99583	1
130.99149	882
131.99489	32
132.01813	1
133.00717	44
137.00095	30
138.00871	8
138.90398	5
139.01656	87
139.91184	6
140.01991	8
140.91952	887
141.923	11
142.99152	32
143.01157	2
143.99931	4
145.00711	134
146.0105	6
146.9864	10
147.02277	14
149.9899	5
150.00873	4
150.99774	10
151.01659	3
151.91184	2
152.91959	13
153.92741	24
154.93514	534
154.99152	6
155.93858	12
157.00714	52
158.01495	12
158.91016	72
159.0228	6
161.98987	26
162.99768	57
164.00099	2
165.01338	12
167.99925	1
168.98817	219
169.00711	26
169.99161	7
170.01494	4
172.92586	14
174.99771	15
176.00554	3
176.90074	23
177.01335	55
178.01669	2
180.98817	195
181.00717	3
181.99158	8
182.93019	2
183.00401	2
184.92583	7
185.93362	3
186.99766	4
188.00552	7
189.01335	23
190.01668	1
190.91635	4
192.98831	10
195.00392	16
196.98323	2
198.99766	3
200.00542	2
201.01332	2
202.91637	38
203.92421	2
204.93207	36
207.00397	22
208.00726	3
209.01956	2
212.99452	18
215.92424	1
218.98512	9
219.00398	15
220.00734	1
220.90704	2
224.99454	7
226.89757	1
227.01019	13
230.98517	39
231.00388	2
231.98846	2
233.91481	2
234.92259	1
236.99464	5
238.00246	3
238.89761	2
239.01025	4
242.98523	6
245.00067	3
248.99449	2
254.98537	2
257.00088	5
258.00858	2
262.9913	3
269.00104	8
274.99161	3
277.00702	4
280.982	12
281.00082	1
286.99133	2
292.98196	1
298.99145	1
304.98196	2
312.98837	3
318.99737	2
324.9881	2
327.00388	1
330.97876	9
342.97848	1
362.98496	5
368.9942	2
380.97546	7
392.9754	1
394.99106	1
406.99097	3
412.98172	23
413.98496	2
430.9718	2
438.99713	1
456.98795	15
457.99164	1
462.9787	13
463.98135	2
476.99399	17
477.99707	2
480.9689	23
481.9718	2
506.98498	3
507.99088	1
526.99133	57
527.99475	6
673.90485	57
674.90839	8
