Mass spectrum: PBDE-119; GC-EI-FT; MS; Positive; CE: 35
Name: PBDE-119
Name: 2,3,4,4,6-Pentabromodiphenyl ether
Class: Non-Natural Product; Brominated Flame Retardant
Formula: C12H5Br5O
Exact mass: 559.6257
SMILES: C1=CC(=C(C=C1OC2=C(C=C(C=C2Br)Br)Br)Br)Br
InChI: InChI=1S/C12H5Br5O/c13-6-3-10(16)12(11(17)4-6)18-7-1-2-8(14)9(15)5-7/h1-5H
Instrument: Trace 1310 GC, Thermo Scientific; Q Exactive Orbitrap, Thermo Scientific
Instrument type: GC-EI-FT
Ms type: MS
Ion mode: POSITIVE
Collision energy: 35 eV
Retention time: 27.00488
Base peak: 403.7856
m/z	relative intensity
100.03085	2
102.0464	2
102.96683	5
103.0544	2
104.06226	3
106.04143	2
107.04921	1
107.97826	23
107.99972	9
108.05698	2
108.48232	11
108.97738	23
109.00728	36
109.06504	2
109.48128	9
110.01535	75
110.10457	4
111.023	61
112.03089	12
113.03873	4
114.06773	3
115.00322	4
115.0545	8
115.92576	11
116.06219	4
116.93341	18
117.06994	2
117.92368	13
118.0778	3
118.9314	19
118.99793	3
120.05697	1
121.9756	27
122.01504	3
122.97478	27
123.02307	2
123.04433	1
125.13259	1
125.9877	3
126.03138	1
127.9258	19
128.06218	9
128.93382	5
129.92371	18
130.07799	6
131.08543	3
131.99957	11
133.01381	29
133.06512	1
134.0154	16
134.0365	5
134.9931	1
135.01036	1
135.02295	15
136.03105	54
137.00873	2
137.03883	640
138.04654	146
139.039	4
139.0544	30
139.92575	12
140.04974	1
140.93362	170
141.92343	13
141.94153	26
142.07779	3
142.93146	162
143.93913	26
144.08107	7
144.94722	7
145.06485	2
146.07248	9
146.10895	1
146.93851	8
147.06573	5
147.43727	48
147.93823	7
148.43633	96
148.91792	2
148.93797	11
149.05951	2
149.09613	1
149.43532	50
149.93703	4
151.92581	16
152.06204	6
152.93329	96
153.02112	3
153.92357	16
153.94109	108
154.06245	2
154.0775	2
154.93141	95
154.9449	9
154.98108	4
155.08575	4
155.93918	103
156.09354	2
158.0725	2
160.12038	3
160.95383	2
161.05966	1
161.93866	21
162.93753	37
162.96989	3
162.99727	2
163.05423	5
163.07547	1
163.93639	16
164.93368	9
165.03377	5
165.07016	4
165.9484	4
166.04138	16
166.07754	4
166.93141	4
167.0733	4
167.08543	2
168.05698	3
169.93637	27
170.0964	3
170.84418	10
171.93411	27
172.08835	2
172.84216	20
174.83972	9
176.98526	8
177.09085	2
177.43602	3
177.98463	1
178.07771	6
179.00076	2
180.09317	1
182.10878	3
185.09608	5
187.39186	3
188.93362	6
189.02216	4
190.07748	1
190.93124	4
190.94887	14
191.00133	25
192.00029	4
192.94699	15
192.98016	8
192.99783	1
193.04927	6
193.04999	4
193.10106	2
194.8439	23
196.84206	46
196.97551	2
198.83957	22
199.03078	1
200.89433	62
201.1636	1
201.39574	9
201.89285	195
202.39494	23
202.89189	180
203.39389	24
203.89066	61
204.39311	8
205.01631	2
207.10222	6
208.07332	2
210.02896	2
211.99065	3
212.08342	4
214.94917	56
215.9574	126
216.94702	57
216.96507	71
217.9546	119
217.96838	7
218.96327	62
219.85161	19
219.96645	8
220.84187	7
220.8595	41
221.85002	39
222.08888	3
222.83948	3
222.85738	73
223.84802	18
224.85527	33
227.12801	1
231.85199	16
233.84956	34
234.85844	6
235.84782	18
236.8559	2
241.84682	3
243.95161	80
244.95476	6
245.94955	73
245.96817	18
246.95245	7
247.84717	22
247.96582	17
248.98843	6
249.8446	46
250.8533	4
250.96848	1
251.84238	21
255.12264	2
256.21857	1
257.22641	2
260.86575	23
262.86374	48
264.86148	22
265.02008	2
267.01682	1
267.21127	3
281.05139	16
282.05066	1
283.0481	3
293.867	6
294.87521	197
295.87894	24
296.87323	400
297.8764	46
298.76962	53
298.87085	203
299.87424	23
300.76822	152
301.77154	8
302.76575	160
303.76914	7
304.76468	49
309.25824	2
311.27325	3
321.86197	13
322.87039	19
323.86206	23
323.87814	114
324.8689	47
324.88147	20
324.98672	4
325.85791	8
325.87531	224
326.76562	13
326.86572	24
326.88	30
326.9657	3
327.87357	113
328.76263	38
328.87817	14
329.77112	6
330.7615	36
331.76797	6
332.7594	10
340.77359	5
341.01843	11
342.01712	2
350.78311	4
350.8765	19
352.8747	39
354.87164	19
372.78525	4
374.78458	14
376.78217	15
378.78036	4
379.3349	2
393.35187	2
400.98502	1
401.78784	345
402.79211	43
403.78564	999
404.78909	126
405.78519	966
406.78738	126
407.78207	316
408.37518	3
408.78473	37
430.0885	2
454.71036	16
456.70676	24
458.70618	14
460.70389	2
479.6976	6
481.69711	22
483.69488	33
483.71201	53
484.69842	5
485.6936	24
485.71085	80
486.71603	10
487.69028	6
487.70718	53
488.7121	8
489.12405	1
489.70459	14
559.6272	54
560.63025	7
561.62561	269
562.62708	34
563.62036	524
564.62695	68
565.61847	504
566.62317	70
567.61627	254
568.62286	31
569.61725	47
570.61823	6
