Mass spectrum: PCB-167; GC-EI-FT; MS; Positive
Name: PCB-167
Name: 2,3',4,4',5,5'-Hexachlorobiphenyl
Class: Non-Natural Product; PCB
Formula: C12H4Cl6
Exact mass: 357.84442
SMILES: C1=C(C=C(C(=C1Cl)Cl)Cl)C2=CC(=C(C=C2Cl)Cl)Cl
InChI: InChI=1S/C12H4Cl6/c13-7-4-9(15)8(14)3-6(7)5-1-10(16)12(18)11(17)2-5/h1-4H
Instrument: Trace 1310 GC, Thermo Scientific; Q Exactive Orbitrap, Thermo Scientific
Instrument type: GC-EI-FT
Ms type: MS
Ion mode: POSITIVE
Base peak: 359.8402
m/z	relative intensity
51.02294	4
52.03085	3
54.04649	3
54.49083	12
55.01784	11
55.05432	18
56.06207	60
57.03355	7
57.06988	64
61.00726	23
63.96143	8
65.03854	4
66.02417	2
67.05419	22
68.04961	3
70.04135	1
71.04911	1
71.97602	16
72.05704	3
72.4743	11
73.00733	59
73.51116	38
74.01519	81
75.02298	9
77.03854	33
77.9879	5
78.04197	7
78.04651	16
81.07	9
82.0777	9
82.53473	6
83.03663	3
83.04922	4
83.08559	2
83.97611	47
83.99951	34
84.05692	4
84.98397	17
85.00732	76
85.10117	4
85.97326	18
86.01518	59
86.03616	3
87.02309	14
87.98958	3
89.95848	13
90.45762	11
90.49184	18
90.99561	26
91.49963	30
92.05764	9
92.06217	7
92.49819	7
93.05746	3
93.07	9
94.04129	13
94.06529	4
94.07774	7
95.97629	20
96.0043	9
96.05711	7
96.08082	7
96.09347	7
96.98412	26
96.99378	27
97.00755	31
97.05233	2
97.08878	2
98.01515	158
98.07275	3
99.02309	38
102.00088	2
105.04474	5
105.06985	12
106.07787	4
106.94514	28
107.04926	10
107.07317	4
107.97609	98
107.99956	22
108.06827	2
108.08093	3
108.48004	26
108.9421	17
108.98392	315
109.0074	52
109.47868	43
109.98265	203
110.01514	65
110.03628	2
110.09635	3
110.10906	11
110.48431	23
110.98111	41
111.02284	11
111.0555	3
111.08056	2
113.05981	2
114.96298	8
115.50104	5
116.05758	2
117.01878	2
117.0701	6
118.0731	1
118.07761	6
118.94521	23
118.99812	3
119.93439	7
119.97646	22
119.99966	51
120.09355	4
120.94202	12
120.98412	23
121.00731	43
121.02844	2
121.05239	2
121.06494	2
121.97327	9
122.01522	139
122.03631	1
122.98114	6
123.00787	3
123.02289	56
123.11665	4
125.05993	2
125.96439	124
126.03117	4
126.04638	2
126.46627	38
126.96308	150
127.07565	4
127.46479	36
127.96175	57
128.00752	7
128.06197	12
128.46542	7
128.99649	4
129.07002	7
130.0332	8
130.06506	3
130.07774	10
130.94513	26
131.06026	6
131.98471	89
131.99936	11
132.48877	2
132.94202	14
132.98348	87
133.0136	29
133.48704	3
133.98173	45
134.01503	6
134.03627	3
134.09666	3
134.10916	5
134.96971	10
134.98114	24
135.02318	10
135.11668	7
135.9619	15
136.47214	3
137.0386	26
137.05971	3
137.09631	2
137.1326	2
137.95886	7
138.10378	2
140.00281	11
140.98996	1
141.47006	12
141.93723	10
141.99977	1
142.07752	2
142.9449	46
143.10652	2
143.95276	647
143.97601	19
143.99963	32
144.45458	94
144.95116	837
144.98384	31
145.00737	29
145.10115	5
145.45305	115
145.95	418
145.96848	2
146.01532	211
146.45132	46
146.94826	81
147.02284	241
147.06523	5
147.45001	7
147.49039	1
148.03068	243
148.05196	2
148.06308	1
148.91768	2
149.02354	8
149.03421	32
149.04488	7
149.13245	5
150.46986	3
150.9717	47
151.46851	2
152.08339	3
152.45398	1
152.46712	2
153.91411	12
154.07768	4
154.94508	8
155.06047	7
155.97606	29
156.03993	2
156.9418	3
156.98401	39
157.04744	3
157.97302	9
157.99164	47
158.98109	15
159.98853	15
160.93329	51
161.43742	52
161.93166	92
162.43617	84
162.9304	49
162.96944	3
163.43454	58
163.92896	16
164.43254	13
164.98567	5
165.06978	3
166.01001	29
167.01743	6
167.95178	13
168.00688	3
168.95021	23
168.96048	39
168.98822	15
169.9496	6
170.95767	21
170.99966	19
171.08009	1
171.45119	1
174.04236	2
175.97948	8
176.98476	11
178.07802	4
178.92133	82
178.98428	12
179.00099	2
179.08507	4
179.42332	12
179.9203	162
179.97601	11
180.42195	18
180.9185	126
180.94398	4
180.96091	26
180.98384	30
181.4205	15
181.91724	58
181.99158	240
182.91574	16
182.95799	18
182.98125	9
182.99974	288
183.989	77
184.00307	54
184.43986	2
184.99631	84
185.0963	2
186.00447	16
189.99109	2
191.00082	23
191.95288	26
191.98781	1
192.96078	24
193.05016	2
193.95013	18
194.03212	19
194.95792	12
195.96547	4
196.04794	1
201.0099	16
202.92162	19
202.9937	11
203.92912	56
204.91887	13
204.9913	1
205.92621	55
206.91542	3
207.03207	92
207.92305	16
208.03122	14
211.00859	2
212.94568	10
214.92142	6
215.95276	24
216.9608	105
217.94952	9
217.96852	757
218.95819	58
218.97197	93
219.9657	467
220.95477	8
220.96892	57
221.96288	79
222.96553	3
226.9216	4
227.04016	3
227.92938	21
229.92686	20
232.00566	2
234.9716	8
237.89038	13
239.88782	17
239.95962	2
251.92943	114
252.93846	84
253.9263	109
253.92955	20
254.935	87
255.92413	35
255.94264	13
256.93137	28
265.02014	1
265.98486	3
267.96426	29
267.98312	5
272.94464	1
280.944	16
281.05145	11
282.94104	14
283.04834	2
284.9375	5
285.89111	2
286.89908	7
287.90579	697
288.89545	12
288.90964	82
289.90344	893
290.9021	11
290.9061	92
291.90057	440
292.90408	47
293.89798	92
294.90106	12
298.94324	11
321.86649	13
322.8746	18
323.8638	20
323.88269	19
324.87244	27
325.86096	16
325.88049	28
326.86877	13
327.8768	21
333.90732	3
335.92377	3
337.92035	8
338.90903	2
339.91748	2
357.84457	538
358.84778	64
359.84018	999
360.84415	112
361.83768	764
362.841	92
363.83502	306
364.83942	35
365.8316	67
366.83493	11
370.8782	1
372.87405	3
377.8718	3
