Mass spectrum: PCB-101; GC-EI-FT; MS; Positive
Name: PCB-101
Name: 2,2',4,5,5'-Pentachlorobiphenyl
Class: Non-Natural Product; PCB
Formula: C12H5Cl5
Exact mass: 323.88339
SMILES: C1=CC(=C(C=C1Cl)C2=CC(=C(C=C2Cl)Cl)Cl)Cl
InChI: InChI=1S/C12H5Cl5/c13-6-1-2-9(14)7(3-6)8-4-11(16)12(17)5-10(8)15/h1-5H
Instrument: Thermo Scientific Q Exactive GC Hybrid Quadrupol-Orbitrap
Instrument type: GC-EI-FT
Ms type: MS
Ion mode: POSITIVE
Retention time: 15.67878
Base peak: 184.00772
m/z	relative intensity
52.03085	4
54.03391	2
55.01784	13
56.06207	16
57.03359	4
57.06989	41
61.00737	13
62.01516	9
63.02292	2
63.48473	6
63.98408	6
66.49486	5
67.04167	1
69.03355	3
73.00735	19
73.51131	21
74.0152	84
75.02296	42
76.0308	5
78.0419	2
78.04652	1
79.05419	7
80.03517	5
80.96902	8
81.03357	1
81.07001	11
81.46812	1
82.06512	5
82.07769	10
83.08558	14
83.53637	2
83.97617	26
83.99947	18
84.47832	4
84.98396	16
85.00734	35
86.0152	42
86.03623	2
86.98106	1
87.02286	27
87.04401	5
88.9511	2
90.4918	9
90.99578	11
91.05434	7
91.49944	18
92.00343	181
92.05772	2
92.06216	8
92.50515	28
93.00211	52
93.03867	4
93.50375	9
94.0413	8
94.07776	3
95.9763	5
96.00431	3
96.02068	3
96.04446	1
96.08078	4
96.09349	9
96.98418	25
97.00746	18
98.01517	145
98.03631	3
98.52045	2
99.02304	83
100.99312	5
102.96672	3
103.99776	5
104.04958	2
104.06211	6
105.0336	1
106.04213	1
106.94513	9
107.0856	3
107.97614	46
107.99928	10
108.08094	4
108.09332	7
108.94211	8
108.98392	189
109.00742	31
109.02851	3
109.06493	2
109.48574	13
109.98267	102
110.01519	49
110.03622	2
110.09636	2
110.10898	2
110.48425	17
110.98109	30
111.02286	29
111.0442	2
112.08835	1
113.03854	3
113.96465	9
114.06756	2
114.50229	8
114.96299	11
115.05433	15
115.07554	2
115.50805	4
117.05721	5
118.03768	1
118.49327	4
118.94521	8
119.04556	5
119.49188	3
119.976	8
119.9996	16
120.09352	1
120.98413	11
121.00735	28
122.01518	133
122.09663	2
122.98115	7
123.02287	141
123.117	3
123.49106	18
124.03087	25
124.11211	1
125.1324	4
125.96439	11
126.06764	2
126.46857	10
126.9723	436
126.99958	6
127.47403	69
127.971	436
128.00749	1
128.04953	2
128.06198	3
128.47247	30
128.96936	130
129.07002	4
129.47112	11
129.96805	17
130.94519	13
131.04096	18
131.08563	6
131.9762	41
132.94202	8
132.9926	45
133.01361	16
133.10132	2
133.48953	2
134.01504	7
134.10918	2
134.98949	46
134.98991	9
135.02309	11
135.08043	1
135.11668	5
135.47398	4
135.9619	3
135.98828	8
137.03862	25
137.09631	1
139.05409	4
141.47008	6
142.94496	12
143.00786	1
143.03673	2
143.95276	98
143.97642	5
143.9996	10
144.05711	3
144.45721	40
144.95117	123
144.98393	19
145.00738	5
145.03972	1
145.45558	63
145.95001	68
145.96849	3
146.01529	77
146.04755	1
146.05984	2
146.07259	1
146.45401	23
146.9387	10
146.99986	21
147.02283	150
147.0554	3
147.06545	2
147.45244	3
147.96547	2
148.03068	207
148.9655	4
148.99672	8
149.03867	386
149.13254	3
150.04221	43
150.10388	2
150.97163	13
151.97003	17
152.06226	1
154.0777	3
155.08545	6
155.97601	11
156.08064	1
156.98404	25
157.99165	52
158.07272	1
158.98111	5
158.99937	31
159.06345	7
159.11668	3
159.98854	9
160.9968	10
161.07902	15
161.94104	84
162.44269	10
162.93993	145
163.14778	2
163.44124	20
163.93794	92
164.43991	15
164.93671	14
165.06973	2
165.43864	4
166.07774	4
167.01729	2
167.04915	12
167.07291	2
167.96123	10
168.95988	7
168.98824	7
169.45668	4
169.95851	32
170.95689	11
170.99968	6
171.11676	2
171.96562	5
172.08794	2
177.04478	10
178.07791	5
180.96086	16
181.0649	3
181.10086	1
181.96854	5
181.99164	51
182.95801	13
182.99977	172
183.11684	3
183.96558	4
183.98936	15
184.00772	999
184.99702	61
185.0105	126
186.00442	323
187.00777	38
189.06976	2
191.00101	8
191.08586	4
191.95285	4
192.96089	20
193.05017	2
193.96822	35
194.95793	5
195.03976	14
195.96548	23
197.03653	5
199.1478	1
203.92906	31
205.9261	43
205.99919	1
207.03209	17
207.92386	13
208.0313	4
208.97292	2
209.02873	4
211.00531	4
213.95329	3
216.96085	9
217.96852	198
218.97638	139
219.96571	119
219.97974	12
220.97339	90
221.96208	18
221.97627	12
222.97078	12
227.9294	14
229.92688	14
233.01411	2
234.0023	2
236.98715	7
239.95964	2
241.78641	4
246.98274	49
248.97994	30
251.92941	3
252.93787	10
253.94475	736
254.93477	7
254.94893	84
255.9426	709
256.94534	84
257.9397	229
258.94302	28
259.93671	21
261.01971	1
264.98209	17
266.97983	20
268.97614	5
281.05148	5
283.04837	2
287.90714	11
288.91391	216
289.9039	18
289.91666	18
290.91144	301
291.91422	38
292.90823	136
293.91058	16
294.90515	32
302.95093	20
304.94888	13
306.94492	8
323.88266	624
324.88605	71
325.87988	976
326.88306	117
327.87653	626
328.88089	65
329.87387	201
330.87766	16
331.87155	32
336.91733	14
338.91397	16
339.91745	46
341.91406	2
