Mass spectrum: D6-Ph; GC-EI-FT; MS; Positive
Name: D6-Ph
Name: 2,2,4,4,6,6,8,8,10,10,12-undecamethyl-12-phenyl-[1,3,5,7,9,11,2,4,6,8,10,12]cyclohexasiloxane
Class: Non-Natural Product; Siloxane
Formula: C17H38O6Si6
Exact mass: 506.12840
SMILES: C[Si]1(O[Si](O[Si](O[Si](O[Si](O[Si](O1)(C)C)(C)C)(C)C2=CC=CC=C2)(C)C)(C)C)C
InChI: InChI=1S/C17H38O6Si6/c1-24(2)18-25(3,4)20-27(7,8)22-29(11,17-15-13-12-14-16-17)23-28(9,10)21-26(5,6)19-24/h12-16H,1-11H3
Instrument: Thermo Scientific Q Exactive GC Hybrid Quadrupol-Orbitrap
Instrument type: GC-EI-FT
Ms type: MS
Ion mode: POSITIVE
Base peak: 135.0623
m/z	relative intensity
52.9842	5
55.05424	5
59.03115	6
61.01041	14
65.03857	2
73.04678	222
74.04636	23
75.02607	482
76.02563	39
77.03855	13
78.04642	1
81.06988	5
87.94315	19
88.95096	16
91.05422	10
92.06206	3
104.94591	17
107.03117	20
110.96409	4
119.03117	5
121.04679	17
122.95642	12
125.98755	10
131.03429	13
132.92279	15
134.99277	20
135.06235	999
136.06575	148
137.05927	45
140.96555	5
147.06551	55
147.9098	9
148.91765	32
149.04477	65
150.04439	8
151.02406	4
153.00331	9
153.07294	10
154.98116	24
156.97867	6
162.93326	28
163.98644	40
164.48628	10
164.94891	21
165.06979	3
166.92818	19
172.00209	24
172.99173	25
178.96452	29
180.94379	28
182.92308	8
191.00088	10
191.97234	9
193.0498	42
196.9751	15
198.95435	15
200.93358	4
206.90509	10
209.08108	35
211.06035	23
212.96996	5
214.98563	3
222.93637	12
224.9156	13
229.00136	2
235.94421	1
240.94696	10
248.98851	4
253.01662	8
254.96265	12
266.99908	7
268.97833	16
280.92392	2
287.05838	1
298.93442	2
310.97076	13
312.95007	4
323.00696	1
359.02823	64
372.98621	1
403.03332	24
475.0726	2
