Mass spectrum: Phenethyl phenylacetate; GC-EI-FT; MS; Positive
Name: Phenethyl phenylacetate
Name: 2-phenylethyl 2-phenylacetate
Class: Non-Natural Product; Personal Care Product 
Formula: C16H16O2
Exact mass: 240.11503
SMILES: C1=CC=C(C=C1)CCOC(=O)CC2=CC=CC=C2
InChI: InChI=1S/C16H16O2/c17-16(13-15-9-5-2-6-10-15)18-12-11-14-7-3-1-4-8-14/h1-10H,11-13H2
Instrument: Trace 1310 GC, Thermo Scientific; Q Exactive Orbitrap, Thermo Scientific
Instrument type: GC-EI-FT
Ms type: MS
Ion mode: POSITIVE
Retention time: 8.99
Base peak: 104.062
m/z	relative intensity
63.02296	4
74.01515	2
77.03859	55
78.04643	74
79.05424	60
80.05762	4
89.0386	21
91.05425	419
92.05761	41
95.0492	3
102.04646	6
103.05424	76
104.04232	3
104.06204	999
104.0812	4
105.04482	3
105.06545	151
136.05197	1
165.0699	4
