Mass spectrum: Di-n-octyl phthalate; GC-EI-FT; MS; Positive
Name: Di-n-octyl phthalate
Name: dioctyl benzene-1,2-dicarboxylate
Class: Non-Natural Product; Phthalate
Formula: C24H38O4
Exact mass: 390.27701
SMILES: CCCCCCCCOC(=O)C1=CC=CC=C1C(=O)OCCCCCCCC
InChI: InChI=1S/C24H38O4/c1-3-5-7-9-11-15-19-27-23(25)21-17-13-14-18-22(21)24(26)28-20-16-12-10-8-6-4-2/h13-14,17-18H,3-12,15-16,19-20H2,1-2H3
Instrument: Thermo Scientific Q Exactive GC Hybrid Quadrupol-Orbitrap
Instrument type: GC-EI-FT
Ms type: MS
Ion mode: POSITIVE
Base peak: 149.0234
m/z	relative intensity
53.03861	1
55.0543	23
56.05758	1
65.03864	6
67.05418	19
68.05752	1
76.03079	7
77.03857	4
79.05424	7
80.06211	1
81.06986	10
82.07774	5
83.08562	11
93.03348	4
99.08057	5
104.0258	14
105.03358	19
106.03699	1
121.02829	29
122.03638	25
123.03961	3
133.02826	1
148.0152	1
148.99116	1
149.02339	999
149.05707	2
150.02673	123
151.0278	10
167.03384	123
168.03709	11
249.11177	6
