Mass spectrum: PCB-122; GC-EI-FT; MS; Positive
Name: PCB-122
Name: 2,3,3',4',5'-Pentachlorobiphenyl
Formula: C12H5Cl5
Exact mass: 323.88339
SMILES: C1=CC(=C(C(=C1)Cl)Cl)C2=CC(=C(C(=C2)Cl)Cl)Cl
InChI: InChI=1S/C12H5Cl5/c13-8-3-1-2-7(11(8)16)6-4-9(14)12(17)10(15)5-6/h1-5H
Instrument: Trace 1310 GC, Thermo Scientific; Q Exactive Orbitrap, Thermo Scientific
Instrument type: GC-EI-FT
Ms type: MS
Ion mode: POSITIVE
Retention time: 17.91648
Base peak: 325.88
m/z	relative intensity
54.0339	2
54.0464	4
55.01785	13
55.05422	15
56.04945	3
56.06208	45
57.0699	45
60.0206	3
61.00738	11
62.0152	5
63.0229	10
68.0258	3
69.0699	17
70.06516	3
70.07777	3
71.04914	2
71.08562	9
73.00737	19
73.04692	1
73.51116	10
74.01521	42
74.5191	5
75.023	39
76.03082	3
77.00536	3
77.03857	19
78.0419	1
78.99575	6
79.04174	5
79.05421	41
79.53131	1
80.03519	10
80.96883	7
81.04324	5
81.07002	10
81.46812	9
81.96745	7
83.97614	13
83.99952	13
84.08076	2
84.09339	4
84.47813	3
84.98399	5
85.00736	28
85.0284	6
85.06481	1
85.10122	6
85.97327	7
86.01523	31
87.02289	19
87.04403	3
87.98971	4
88.03079	2
88.99749	2
89.03854	7
90.99563	5
91.05437	19
91.49944	11
92.00345	99
92.0622	5
92.50516	24
93.00212	52
93.50376	7
94.04131	9
94.07778	4
95.01273	3
95.97607	13
96.00407	9
96.03385	6
96.08083	1
96.09351	10
96.9842	12
97.00752	12
97.06496	2
97.10113	8
97.51969	2
98.02352	96
98.03628	4
98.06023	3
98.07277	4
99.02278	45
99.04424	6
100.02642	3
101.00865	3
102.00072	2
102.96673	1
103.05426	5
104.04959	1
104.06213	4
106.04188	7
106.06532	1
106.07785	2
106.94511	6
107.08564	12
107.97614	42
107.99958	3
108.06828	3
108.08064	3
108.98396	121
109.00749	26
109.06497	4
109.48575	17
109.98241	90
110.01522	28
110.03625	2
110.48426	17
110.98115	18
111.02287	11
111.08064	2
112.08836	1
113.03858	9
113.05983	2
113.96465	14
113.99633	3
114.96301	12
115.00409	7
115.05435	4
115.96144	7
117.00114	23
117.0698	11
117.93724	15
118.03774	48
118.94522	7
118.98143	8
118.99153	8
119.08565	9
119.93405	10
119.97601	16
119.99963	20
120.09327	3
120.98417	5
121.00737	26
121.06493	6
121.97328	5
122.01524	88
123.02293	103
123.05512	5
123.0805	2
123.49107	13
124.03088	25
124.05203	3
125.03855	5
125.09598	3
125.96439	14
126.46858	11
126.97235	301
127.05415	1
127.47408	42
127.97066	287
128.00771	3
128.062	12
128.47249	40
128.96942	89
129.04488	1
129.05746	2
129.06561	2
129.47122	7
129.51117	2
129.96802	11
130.03311	3
130.06503	5
130.07776	6
130.94522	14
131.04098	12
131.97624	39
131.99937	3
132.04866	8
132.09351	1
132.49072	3
132.94203	11
133.01363	9
133.48912	3
133.97346	14
133.99091	7
134.03628	2
134.07253	10
134.10918	6
135.02277	7
135.08046	12
135.98824	3
136.00749	21
137.03873	18
137.05972	3
137.13252	1
137.95888	3
138.07852	2
138.12775	1
140.00284	4
140.47163	2
141.07001	7
141.47008	14
141.9368	12
141.99989	3
142.01851	7
142.07759	3
142.90324	8
142.94507	17
143.00781	3
143.93425	9
143.95281	107
143.97597	8
143.99962	8
144.09326	3
144.45724	31
144.9512	168
144.98395	21
145.00738	8
145.10124	1
145.4557	30
145.95004	73
145.96849	11
146.01495	46
146.09636	1
146.10915	4
146.45392	14
146.49188	6
146.93829	10
146.93878	15
146.99945	12
147.02289	84
147.08031	2
147.48978	20
148.00751	9
148.03072	118
149.03871	273
150.04173	56
150.10388	1
150.97125	10
151.03896	1
151.0544	3
151.08679	3
151.47527	4
151.98883	2
152.06229	6
152.09448	4
153.00659	7
155.97601	12
156.98406	24
157.06482	1
157.10132	5
157.99167	23
158.05513	3
158.9666	2
158.98111	9
158.99927	16
159.06291	5
159.11681	5
159.98909	6
160.00752	13
160.12494	4
160.99681	5
161.07855	8
161.94109	53
162.00412	5
162.4427	2
162.93945	67
162.97011	3
163.14835	3
163.44121	12
163.93799	56
164.43993	7
164.93672	17
164.98563	1
165.12732	3
165.16377	3
166.00943	2
166.07776	3
166.94488	16
167.04916	9
168.02502	2
168.05308	2
168.45836	1
168.9599	6
169.9586	23
170.04066	2
170.99968	10
171.08012	2
171.96503	12
172.0074	5
173.13226	4
175.1483	2
175.97763	1
176.98521	5
177.04491	12
177.9944	18
177.99504	5
179.08524	3
179.99223	2
180.96095	15
181.99171	23
182.03642	3
182.99989	106
183.11684	2
183.98903	7
184.00713	745
184.99638	43
185.01057	84
185.13214	3
186.00452	263
187.00789	29
187.14792	4
187.87485	4
189.16399	2
189.97224	2
191.00099	7
191.08586	2
191.88864	1
191.95306	18
191.98782	5
192.00061	7
192.96024	10
192.98035	3
193.01708	7
193.04945	5
193.94943	14
193.96834	17
194.03209	2
194.95793	6
194.97182	2
194.99605	4
195.03978	16
195.11655	1
195.9655	7
197.13231	5
198.04463	11
202.07794	3
202.92145	14
203.17938	2
203.92987	10
204.91888	11
205.99919	3
206.95778	2
207.03217	52
209.01189	3
210.94858	2
212.00905	2
213.09088	5
213.95325	2
215.0856	3
215.92947	3
216.96086	8
217.96857	150
218.97658	99
219.9658	103
219.98468	20
220.9736	54
221.08441	4
221.96298	11
221.98161	18
222.97092	9
223.04599	2
227.92941	13
229.9269	8
231.00282	2
231.01697	6
232.00568	3
232.02466	1
234.00328	2
236.98717	11
237.89041	5
239.88785	5
240.36514	3
246.98297	30
247.98575	4
248.97902	17
251.92943	9
252.93788	9
253.94488	453
254.93478	10
254.949	58
255.94273	439
256.94556	51
257.93979	134
258.94315	20
259.93683	17
261.01984	2
263.96976	1
264.9826	16
265.02017	3
265.98612	24
266.98029	1
267.98203	10
268.97592	9
269.97903	5
281.0516	5
283.04837	1
287.90604	21
288.91394	15
289.90372	28
289.92206	7
290.91205	11
291.90073	14
291.918	18
292.90826	6
293.91574	10
300.9545	3
301.94308	1
301.96155	1
303.95956	2
305.95599	3
323.88287	620
324.88626	71
325.88004	999
326.88324	123
327.87671	628
328.87961	79
329.87408	203
330.87781	21
331.87201	33
333.16037	1
334.92017	13
335.92392	3
336.91742	13
338.91428	15
339.91763	19
343.91138	5
355.07068	3
