Mass spectrum: 1,1,3-Trimethyl-3-phenylindane; GC-EI-FT; MS
Name: 1,1,3-Trimethyl-3-phenylindane
Name: 1-Phenyl-1,3,3-trimethylindan
Class: Non-Natural Product; Industrial Chemical
Formula: C18H20
Exact mass: 236.15650
SMILES: CC1(CC(C2=CC=CC=C21)(C)C3=CC=CC=C3)C
InChI: InChI=1S/C18H20/c1-17(2)13-18(3,14-9-5-4-6-10-14)16-12-8-7-11-15(16)17/h4-12H,13H2,1-3H3
Instrument: Trace 1310 GC, Thermo Scientific; Q Exactive Orbitrap, Thermo Scientific
Instrument type: GC-EI-FT
Ms type: MS
Ion mode: POSITIVE
Retention time: 8.28
Base peak: 221.1324
m/z	relative intensity
57.06991	13
65.03861	12
71.08558	12
74.01514	7
77.0386	40
81.52689	4
82.53469	7
85.10121	10
88.03079	11
91.05424	341
94.53471	13
101.03864	34
102.04645	44
105.06992	132
109.5582	11
115.05425	157
126.04646	17
127.05428	40
128.06204	516
129.0699	161
139.05429	12
143.08551	861
144.08891	113
149.03862	1
152.06207	41
155.06038	47
157.10115	3
162.04642	3
164.06201	17
174.04646	3
176.06201	24
177.06982	14
178.07767	112
186.0463	2
187.05417	7
189.06982	105
191.08546	119
200.06209	7
202.07764	65
204.09329	31
221.13237	999
222.13577	179
