Mass spectrum: PCB-183; GC-EI-FT; MS; Positive
Name: PCB-183
Name: 2,2',3,4,4',5',6-Heptachlorobiphenyl
Class: Non-Natural Product; PCB
Formula: C12H3Cl7
Exact mass: 391.80544
SMILES: C1=C(C(=CC(=C1Cl)Cl)Cl)C2=C(C(=C(C=C2Cl)Cl)Cl)Cl
InChI: InChI=1S/C12H3Cl7/c13-5-2-7(15)6(14)1-4(5)10-8(16)3-9(17)11(18)12(10)19/h1-3H
Instrument: Trace 1310 GC, Thermo Scientific; Q Exactive Orbitrap, Thermo Scientific
Instrument type: GC-EI-FT
Ms type: MS
Ion mode: POSITIVE
Retention time: 19.82229
Base peak: 323.864
m/z	relative intensity
51.023	5
52.03075	2
53.00225	2
53.03862	1
55.01784	5
55.05422	11
56.06208	58
57.06989	64
58.04136	1
59.04914	1
61.00726	23
62.01519	5
62.98091	5
63.02291	5
63.96147	6
68.02582	2
71.04928	1
73.00739	86
73.51118	29
74.01519	30
77.03856	7
77.9879	10
78.04653	2
78.49173	5
79.04172	2
79.0542	1
80.04959	2
80.06209	6
80.4652	8
80.96413	11
81.03358	4
81.04474	1
81.05727	2
81.46357	7
82.0414	3
82.06513	2
82.0777	4
82.94492	7
83.07301	3
83.97615	38
83.98791	2
83.99949	49
84.98398	10
85.00734	88
85.06477	1
85.97327	7
86.01521	42
86.03626	1
87.02292	11
88.03078	3
89.98779	29
90.49182	68
90.99556	38
91.49031	27
94.04131	2
94.96824	15
95.47214	5
95.97605	20
96.0043	5
96.05711	3
96.4707	4
96.99386	14
97.00745	36
98.01519	77
98.03625	6
98.04745	1
98.10453	3
98.98101	4
99.01854	15
99.11671	2
102.04658	1
102.9668	2
104.98232	3
105.06987	23
105.93729	4
105.99909	2
106.06524	1
106.0779	3
106.94511	29
106.96825	2
107.08564	2
107.47234	15
107.9761	126
107.99956	36
108.08089	6
108.0933	4
108.48006	54
108.94218	18
108.98391	53
109.00745	92
109.02851	4
109.06489	3
109.47867	24
109.97309	40
110.0152	67
110.07281	4
110.10904	2
110.9811	5
111.02284	11
111.0804	3
115.05435	4
116.04961	4
117.01878	2
117.05719	5
117.06979	5
117.93722	13
118.94522	20
118.96854	10
118.99815	5
119.93437	12
119.97639	37
119.99963	80
120.08084	3
120.09351	3
120.94203	12
120.97739	14
121.00738	58
121.97327	9
122.0152	78
123.01849	19
124.00532	4
124.01569	3
124.95679	3
125.46061	27
125.96441	291
126.46632	59
126.9631	273
127.05413	2
127.46476	20
127.96171	90
128.04953	4
128.06198	11
128.46307	7
129.07005	11
129.93736	7
130.06499	3
130.07781	4
130.94518	34
131.04907	1
131.07314	5
131.94362	18
131.97618	148
131.99933	34
132.04454	2
132.09335	3
132.92268	2
132.94199	28
132.98399	53
133.01282	34
133.01364	43
133.10136	9
133.97342	53
134.01521	12
134.09666	2
134.10916	3
134.96976	21
134.98108	16
135.02318	8
135.04423	2
135.08043	4
135.96828	10
136.05171	2
136.08833	3
137.0386	3
137.07091	1
137.44891	6
138.12773	4
138.14037	2
138.4476	6
139.05421	4
140.0495	3
140.90599	10
141.06998	1
141.93726	35
142.90323	8
142.94495	147
142.96834	8
143.10652	1
143.44913	26
143.94353	152
143.97603	39
143.9996	73
144.08069	5
144.44786	47
144.94226	95
144.98399	26
145.00737	69
145.44626	9
145.94057	16
145.95003	27
145.97322	15
146.01535	315
146.10916	3
146.93864	4
146.98077	6
147.02286	149
147.04392	2
147.08031	4
147.11662	5
148.02634	16
148.06308	1
148.91768	4
150.04665	3
151.11169	1
151.9501	7
152.45398	9
152.9487	11
153.45296	14
153.91411	8
153.93716	7
153.94742	11
154.0777	5
154.9451	19
155.06061	4
155.08543	2
155.91068	7
155.97603	73
156.08064	2
156.94167	11
156.98402	41
157.06483	4
157.45218	1
157.97308	24
157.99168	9
158.98109	10
159.11681	2
159.98908	3
160.05154	2
160.12492	2
160.93326	451
161.43518	68
161.93167	764
162.0672	1
162.43375	78
162.93047	461
163.43219	57
163.92897	139
164.43071	13
164.9276	20
165.93715	20
166.07314	2
166.94493	44
167.93445	13
167.95314	14
167.97592	10
168.94228	23
168.9841	8
169.94965	8
170.07278	2
170.99966	8
173.13222	2
176.9855	4
177.91347	25
178.07788	1
178.41765	47
178.91238	45
178.9451	8
179.00114	3
179.08586	2
179.41634	105
179.91072	52
179.97598	40
180.09334	1
180.41489	89
180.90938	15
180.96097	10
180.98387	80
181.41341	37
181.90794	3
181.97342	13
181.99161	361
182.41203	11
182.95801	3
182.98125	30
182.99526	47
183.98904	115
184.99228	15
189.93709	5
190.94487	9
191.00082	16
191.95287	58
192.00066	2
192.94223	3
192.98039	2
192.99762	4
193.01703	2
193.10127	1
193.95016	35
194.09663	1
195.90224	64
196.12457	2
196.40422	9
196.9008	187
197.40224	18
197.89885	188
198.40092	18
198.8977	95
198.99478	5
199.03094	1
199.14854	2
199.39918	7
199.89642	27
201.16371	3
201.91383	10
202.92152	22
203.91109	8
203.92986	5
204.91907	17
204.9606	12
205.92621	5
206.91623	8
206.95776	8
207.03212	70
207.10245	4
209.02887	6
211.06042	1
214.92117	18
214.9451	3
215.95253	159
216.91898	18
216.96095	184
217.94963	105
217.96382	19
218.9581	101
219.94734	15
219.96046	18
220.95479	13
226.92162	10
227.91092	9
227.92938	8
228.91884	9
229.92686	7
234.97157	8
236.88243	6
236.96854	8
237.89041	14
238.88004	7
239.88797	24
240.92007	4
241.88428	11
246.96402	5
248.98848	2
250.92177	27
251.9295	428
252.9187	26
252.9323	50
253.92639	440
254.9162	3
254.9303	56
255.92401	142
256.92667	17
257.92059	16
261.89069	14
263.88834	17
265.8848	7
268.9321	4
270.92902	4
271.85162	6
273.84836	10
274.89841	1
277.07846	1
281.05158	9
282.04962	4
285.89111	58
286.89795	104
287.88754	71
287.90189	7
288.89584	136
289.88501	36
289.89951	16
290.89331	69
291.88184	8
292.8894	15
301.05817	2
303.70944	4
321.86673	619
322.86987	64
323.86401	999
324.86719	118
325.86105	597
326.86401	64
327.8591	200
328.86166	24
329.85468	27
356.83694	106
357.83911	11
358.83316	201
359.82364	5
359.83829	23
360.82965	150
361.83618	22
362.828	61
363.83139	9
364.82398	11
391.80502	183
392.80777	22
393.80203	403
394.80618	51
395.79965	377
396.80316	47
397.79556	204
398.80029	21
399.79352	56
400.79724	1
401.78955	10
