Mass spectrum: Decamethylcyclopentasiloxane (D5); GC-EI-FT; MS; Positive
Name: D5
Name: Decamethylcyclopentasiloxane
Class: Non-Natural Product; Cyclic siloxane
Formula: C10H30O5Si5
Exact mass: 370.09396
SMILES: C[Si]1(O[Si](O[Si](O[Si](O[Si](O1)(C)C)(C)C)(C)C)(C)C)C
InChI: InChI=1S/C10H30O5Si5/c1-16(2)11-17(3,4)13-19(7,8)15-20(9,10)14-18(5,6)12-16/h1-10H3
Instrument: Thermo Scientific Q Exactive GC Hybrid Quadrupol-Orbitrap
Instrument type: GC-EI-FT
Ms type: MS
Ion mode: POSITIVE
Base peak: 73.04675
m/z	relative intensity
59.03111	33
73.04675	999
74.0463	94
133.01349	5
162.00714	3
162.99678	4
164.98524	3
191.00079	24
192.98012	13
196.97502	1
205.01648	11
207.03214	10
209.01141	5
222.9363	14
236.95195	9
240.94688	3
248.98834	31
251.96721	18
252.98328	8
254.96257	2
265.01974	8
266.99881	458
269.99539	13
281.05093	4
285.00937	54
308.99145	4
321.12842	1
339.03821	16
