Mass spectrum: UV-320; GC-EI-FT; MS; Positive
Name: UV-320
Name: 2-benzotriazol-2-yl-4,6-di-tert-butylphenol
Class: Non-Natural Product; Benzotriazole
Formula: C20H25N3O
Exact mass: 323.19976
SMILES: CC(C)(C)C1=CC(=C(C(=C1)N2N=C3C=CC=CC3=N2)O)C(C)(C)C
InChI: InChI=1S/C20H25N3O/c1-19(2,3)13-11-14(20(4,5)6)18(24)17(12-13)23-21-15-9-7-8-10-16(15)22-23/h7-12,24H,1-6H3
Instrument: Thermo Scientific Q Exactive GC Hybrid Quadrupol-Orbitrap
Instrument type: GC-EI-FT
Ms type: MS
Ion mode: POSITIVE
Base peak: 308.17566
m/z	relative intensity
103.05432	15
118.54466	15
120.05566	32
130.06523	11
131.04924	14
132.56029	34
133.06484	54
145.06484	12
146.57588	18
147.08052	15
167.07295	16
180.08083	22
183.06784	11
224.08185	26
252.11311	141
253.11658	22
266.12933	15
280.14453	37
292.14462	15
308.17566	999
309.17926	201
310.18271	20
323.1991	195
324.20276	42
