Mass spectrum: PCB-180; GC-EI-FT; MS; Positive
Name: PCB-180
Name: 2,2',3,4,4',5,5'-Heptachlorobiphenyl
Class: Non-Natural Product; PCB
Formula: C12H3Cl7
Exact mass: 391.80544
SMILES: C1=C(C(=CC(=C1Cl)Cl)Cl)C2=CC(=C(C(=C2Cl)Cl)Cl)Cl
InChI: InChI=1S/C12H3Cl7/c13-6-3-8(15)7(14)1-4(6)5-2-9(16)11(18)12(19)10(5)17/h1-3H
Instrument: Trace 1310 GC, Thermo Scientific; Q Exactive Orbitrap, Thermo Scientific
Instrument type: GC-EI-FT
Ms type: MS
Ion mode: POSITIVE
Base peak: 323.8639
m/z	relative intensity
52.03086	3
55.05432	8
56.06207	68
57.03358	2
57.06988	47
58.04136	2
58.07328	16
59.04914	2
61.00726	27
61.02849	3
62.0152	8
63.96143	1
64.03081	4
64.96921	5
66.04652	8
67.05419	16
69.03354	6
69.06988	29
71.08559	65
71.98783	7
73.00736	90
73.02848	12
73.51115	32
74.03622	2
76.03078	4
77.00536	3
77.98791	12
78.04209	5
79.0274	3
80.04958	9
80.06209	3
80.96434	11
81.05747	2
81.07	36
82.05276	5
82.07769	28
82.53474	3
83.04921	8
83.08558	59
83.97615	47
83.99943	49
84.02062	4
84.04456	6
84.08096	2
84.09334	2
85.00732	86
85.02835	5
85.97327	10
86.01521	34
86.0362	2
87.98959	14
89.03851	12
89.98781	37
90.0465	7
90.49179	73
90.99563	44
91.05434	20
91.49024	25
91.99419	3
92.06216	7
92.52663	4
94.07776	4
94.9685	15
95.08556	26
95.97618	28
96.0043	53
96.0207	4
96.08086	9
96.0935	25
96.51189	3
96.99389	17
97.00761	44
98.01518	90
98.03627	4
98.04746	2
98.07272	9
99.02305	9
99.11696	17
99.9851	1
100.00549	6
101.03863	2
101.05986	1
102.96673	3
103.04163	4
103.05425	3
104.0258	6
104.04961	2
104.06212	11
104.94598	3
105.00948	2
105.03361	26
105.04475	2
105.06552	3
105.06984	2
106.02572	7
106.04188	16
106.94517	31
107.97606	120
107.99952	30
108.05716	5
108.48003	57
108.94212	17
108.98393	60
109.00742	87
109.0762	2
109.10125	7
109.47866	28
109.95517	1
109.97341	45
110.01521	63
110.0362	4
110.10898	5
111.11674	5
111.95219	11
112.01547	3
112.12467	10
112.95667	2
113.05983	3
113.13245	21
113.46059	4
113.49242	5
115.03912	2
115.05432	5
116.05764	2
117.02969	18
117.07008	14
117.9372	26
118.07351	3
118.0779	8
118.94522	14
118.96855	18
119.04557	53
119.07308	3
119.9344	18
119.97635	35
119.99961	69
120.05707	5
120.94205	11
120.98418	13
121.00738	64
121.06491	1
121.08887	1
121.10134	9
122.0152	96
122.03619	5
122.07272	5
123.05549	5
123.08038	4
123.117	13
123.94755	11
124.05204	1
125.05994	2
125.13274	9
125.46053	17
125.96438	295
126.45912	65
126.96307	285
127.46482	43
127.96168	84
128.00755	4
128.96034	9
128.9969	2
129.07002	4
129.93738	11
130.07776	2
130.94518	43
131.04094	20
131.98469	68
131.99973	38
132.08081	2
132.09357	5
132.92311	6
132.94203	24
132.98308	25
133.01356	47
133.05234	7
133.06474	8
133.48003	4
133.9817	104
134.01504	10
134.07294	1
134.09627	5
134.1091	3
134.4658	6
134.96974	15
134.98109	25
134.99289	5
135.01056	6
135.02319	7
135.09184	1
135.11708	6
135.96198	19
136.96031	14
137.05972	2
137.07092	3
138.07896	1
138.12775	6
138.14038	4
138.99522	2
139.05415	6
139.14838	7
140.98997	12
141.011	10
141.16399	12
141.93712	39
141.99983	5
142.07352	7
142.07794	14
142.90324	12
142.9449	98
143.00781	5
143.0363	3
143.07301	1
143.10654	2
143.44902	37
143.94342	179
143.97635	7
143.99959	76
144.04402	7
144.0808	1
144.44789	59
144.94228	113
144.98386	31
145.00742	70
145.06503	5
145.44603	20
145.94058	30
145.96851	11
146.01531	225
146.03619	2
146.44432	3
146.93867	7
146.98079	4
147.02284	130
147.04393	3
147.06541	4
147.08029	8
147.95709	12
148.91771	1
149.13255	5
149.46924	6
150.96217	22
151.08679	2
151.14812	2
151.46631	14
151.95064	6
152.02354	3
152.15591	2
152.45451	14
152.90608	7
152.94872	16
153.45297	14
153.94743	6
154.9451	19
155.97595	75
156.09322	3
156.98393	40
157.06482	3
157.9917	12
158.05557	49
158.09674	3
158.10901	2
158.47455	10
158.96875	3
158.98112	9
159.96738	3
160.07112	7
160.12494	2
160.93321	408
160.95407	4
161.13277	2
161.435	65
161.93162	775
162.43372	63
162.9304	489
162.96957	7
163.05444	1
163.07568	1
163.43213	9
163.92894	161
164.43088	5
164.92764	27
165.12732	4
165.93713	22
166.00998	13
166.45181	2
166.95352	78
167.93448	14
167.95192	130
167.97595	13
168.00691	5
168.08116	3
168.95044	47
168.95104	48
168.98413	14
169.10132	4
169.44722	2
169.94898	48
170.0728	3
170.9475	21
170.9481	13
172.12491	2
173.09679	3
173.96416	1
175.14795	2
175.96135	2
176.9852	17
177.1638	26
177.91408	35
178.07782	8
178.4176	26
178.91237	47
178.94513	4
179.00098	7
179.08588	9
179.41626	52
179.91122	53
179.97604	40
180.4149	46
180.961	12
180.98386	81
181.10132	2
181.41318	38
181.97316	13
181.99153	300
182.95802	4
182.98128	24
182.99522	52
183.11685	3
183.98895	117
184.93251	31
184.99231	16
185.09633	1
185.13274	5
185.93054	8
186.43481	19
187.14793	2
187.43324	6
189.06978	3
190.9449	9
191.00079	3
191.1433	2
191.17947	2
191.95277	53
193.05019	3
193.95009	34
195.90213	76
196.02878	10
196.1246	3
196.40424	8
196.90071	175
197.40221	19
197.89944	162
198.89755	81
199.14856	2
199.89647	31
200.89528	5
201.9861	2
202.07794	1
202.92075	15
203.91963	41
204.91797	29
204.96062	8
205.10084	1
205.91672	27
206.91545	7
206.95779	5
207.03204	62
207.10167	3
207.92389	5
208.03122	22
210.01082	4
211.00862	5
211.14851	3
211.95686	13
212.94571	5
213.16353	3
214.92145	15
215.95331	158
216.91884	9
216.96089	191
217.94955	98
217.96425	18
217.99448	4
218.95808	118
219.94736	14
219.96048	19
220.9548	15
223.95157	9
225.04277	1
227.91095	4
229.00055	53
230.00925	18
230.99806	17
231.98769	12
234.97165	8
236.96857	8
237.89043	15
238.88007	7
239.88786	20
240.56828	6
240.87697	2
245.91759	8
250.92139	29
251.92937	440
252.91823	30
252.93315	56
253.92632	423
254.93028	51
255.92392	70
256.9267	13
257.92087	14
261.89102	12
263.88809	13
264.96347	18
266.99954	4
267.9642	41
268.9783	4
273.84961	10
273.92139	10
275.91754	3
281.05136	19
283.87314	4
285.89108	47
286.89914	101
287.88742	83
287.89136	15
288.8956	138
289.88519	37
289.90506	18
290.89334	64
291.8819	8
291.90064	10
296.92682	5
297.93036	33
298.93442	12
298.93857	47
299.0621	2
300.93613	45
301.9241	17
301.94327	24
303.94113	7
321.86655	621
322.87119	83
323.86386	999
324.8638	22
324.86694	112
324.98669	2
325.8609	555
326.86377	80
326.96719	2
327.85892	199
328.86176	22
329.85614	31
330.86008	1
332.90442	47
334.90176	9
336.89908	23
342.01761	2
349.91892	2
356.83655	97
357.84097	15
358.83304	168
359.83762	30
360.82947	139
361.83585	18
362.82767	51
364.82404	11
367.87225	5
369.86841	12
371.86737	2
371.88083	5
372.86993	33
373.87869	12
391.80478	163
392.80786	22
393.80176	413
394.80585	57
395.79938	382
396.80301	47
397.79535	191
398.7995	24
399.79352	63
400.7973	7
401.78958	10
402.84198	13
406.83575	18
408.83322	19
409.83572	20
411.83286	3
413.82996	11
428.58972	2
