Mass spectrum: Benzyl butyl phthalate; GC-EI-FT; MS; Positive
Name: Benzyl butyl phthalate
Name: 2-O-benzyl 1-O-butyl benzene-1,2-dicarboxylate
Class: Non-Natural Product; Phthalate
Formula: C19H20O4
Exact mass: 312.13616
SMILES: CCCCOC(=O)C1=CC=CC=C1C(=O)OCC2=CC=CC=C2
InChI: InChI=1S/C19H20O4/c1-2-3-13-22-18(20)16-11-7-8-12-17(16)19(21)23-14-15-9-5-4-6-10-15/h4-12H,2-3,13-14H2,1H3
Instrument: Thermo Scientific Q Exactive GC Hybrid Quadrupol-Orbitrap
Instrument type: GC-EI-FT
Ms type: MS
Ion mode: POSITIVE
Base peak: 149.02347
m/z	relative intensity
50.01519	4
51.023	2
56.06205	2
63.02299	3
65.03857	43
74.01518	2
75.02301	3
76.03085	31
77.03414	2
77.03861	23
78.04204	2
78.04648	2
79.05419	30
80.05759	2
89.03867	14
90.04639	4
91.05436	269
92.05774	20
92.0622	6
104.02585	111
105.02936	9
105.03355	62
105.0699	1
106.0369	5
106.04132	2
107.04924	13
108.0526	1
115.0543	1
118.04145	3
121.02845	34
122.03199	2
122.03646	40
123.04427	120
132.02092	54
133.02425	5
133.02861	7
133.10138	4
135.04417	51
136.05211	7
146.03655	2
149.02347	999
149.05946	3
150.02683	86
150.03095	15
151.02768	5
151.03029	2
152.06218	4
159.08052	2
161.09621	1
165.06981	17
166.07744	3
177.09134	15
178.09464	2
178.09906	11
181.06503	2
193.06517	4
194.073	5
205.08612	10
206.09401	113
207.09735	14
209.0602	2
238.06282	19
239.06615	3
