Mass spectrum: Hexabromobenzene; GC-EI-FT; MS; Positive
Name: Hexabromobenzene
Name: 1,2,3,4,5,6-hexabromobenzene
Class: Non-Natural Product; Brominated flame retardant
Formula: C6Br6
Exact mass: 545.51003
SMILES: C1(=C(C(=C(C(=C1Br)Br)Br)Br)Br)Br
InChI: InChI=1S/C6Br6/c7-1-2(8)4(10)6(12)5(11)3(1)9
Instrument: Thermo Scientific Q Exactive GC Hybrid Quadrupol-Orbitrap
Instrument type: GC-EI-FT
Ms type: MS
Ion mode: POSITIVE
Base peak: 231.83408
m/z	relative intensity
51.02298	4
53.03863	3
55.01785	5
55.05433	4
60.02061	1
61.0074	9
62.01521	75
66.02406	24
68.0621	2
69.06991	6
71.08564	4
71.9995	4
73.0074	25
77.0386	18
78.01972	11
78.04641	2
78.91787	46
79.92564	30
80.06214	6
80.91579	39
80.93352	3
81.03346	1
81.06989	9
81.92357	27
82.07778	5
83.08567	2
85.10133	2
87.04411	5
89.02036	2
90.01016	74
90.918	6
91.01346	1
91.05425	9
92.91589	10
94.0779	7
95.08572	2
97.10126	3
98.03642	5
99.04415	1
100.00567	95
101.00909	4
104.06204	5
105.07004	7
106.02591	50
106.0265	16
107.04925	3
110.0727	2
111.08053	4
114.06779	3
114.91788	56
115.91674	55
116.0622	3
116.91581	92
117.06999	7
117.92785	50
118.92702	27
118.99803	2
119.08553	2
119.92581	38
121.10126	4
122.07263	2
122.10918	2
123.08065	2
126.06754	11
126.91769	12
127.05402	3
130.07767	4
130.93138	6
132.92912	14
133.10121	3
133.9371	6
134.07282	1
134.10898	1
135.117	5
136.12486	1
137.09621	2
138.91772	16
139.05447	3
140.91574	17
141.06987	2
142.07791	9
142.93155	13
143.93462	10
145.93237	5
146.07254	2
146.10902	2
147.94842	5
149.13246	9
150.91785	480
151.92589	138
152.06212	3
152.91559	527
153.92374	116
154.37723	23
154.92377	17
155.06047	7
155.0853	2
155.37593	72
155.87999	9
156.37495	69
156.93797	226
157.3869	14
157.83609	4
157.88399	16
158.07262	2
158.10461	5
158.38609	30
158.93578	79
159.38516	23
159.83432	12
159.88915	16
159.94388	148
160.38386	4
160.88766	4
161.83206	3
164.06187	1
166.07764	6
167.0853	4
167.92035	8
169.10142	2
169.91864	7
173.94066	11
175.14793	2
175.93869	10
176.9854	2
178.92378	53
180.92166	58
183.94072	4
184.94424	27
185.84047	6
187.14853	2
189.06969	2
189.16391	3
191.08578	1
193.10121	2
193.83627	29
194.83518	103
195.83371	121
196.33623	9
196.83324	158
197.33516	9
197.84492	83
198.34241	10
199.84334	26
203.08527	2
203.84074	5
205.83623	31
207.1024	1
207.83372	59
207.83452	34
211.84749	19
212.08273	1
213.8457	23
215.08556	2
219.83356	6
227.03998	3
229.83612	472
230.83908	17
231.83408	999
232.83705	67
233.295	4
233.83232	458
234.29443	17
234.83462	24
234.85284	2
235.29283	36
235.85651	89
236.29259	43
236.79668	3
236.8511	19
237.30452	23
237.79492	9
238.80753	7
239.30254	46
239.80595	12
239.85193	120
240.3011	23
240.86	5
265.0202	1
272.75482	4
273.75354	33
274.75293	82
275.75165	108
276.25366	8
276.75088	46
277.76291	23
278.25934	3
279.76007	35
308.75406	51
310.75235	130
311.76126	8
312.75082	126
313.75903	9
314.74765	38
314.7746	29
318.77008	73
387.67215	26
389.67065	94
390.67569	6
391.66812	148
392.67258	8
393.66656	65
393.69379	2
394.68677	9
395.66638	22
395.69034	16
396.68484	11
411.686	4
413.68372	2
422.68097	2
426.70407	4
468.58914	28
469.59555	10
470.58777	81
471.59518	36
472.58542	24
473.59366	47
474.58258	38
474.61032	20
475.59058	19
476.60611	22
478.60593	4
480.60446	11
481.60965	4
483.60953	6
496.59665	10
498.59241	26
500.59091	13
502.5896	12
502.61551	6
504.61282	11
508.60873	10
510.60596	3
545.50848	9
547.50781	79
548.50928	7
549.50708	242
550.50781	18
551.50391	341
552.50568	19
553.50024	211
553.5282	56
554.52448	10
555.50092	87
555.52551	4
556.52252	13
557.52344	88
