Mass spectrum: Levoglucosan; LC-ESI-QFT; MS2; CE:20; [M-H]-
Name: Levoglucosan
Name: (1R,2S,3S,4R,5R)-6,8-dioxabicyclo[3.2.1]octane-2,3,4-triol
Class: Natural product
Formula: C6H10O5
Exact mass: 162.05282
SMILES: C1[C@@H]2[C@H]([C@@H]([C@H]([C@H](O1)O2)O)O)O
InChI: InChI=1S/C6H10O5/c7-3-2-1-10-6(11-2)5(9)4(3)8/h2-9H,1H2/t2-,3-,4+,5-,6-/m1/s1
Instrument:  QExactive Plus Orbitrap
Instrument type: LC-ESI-QFT
Ms type: MS2
Ion mode: NEGATIVE
Collision energy: 20
Retention time: 8.02
Precursor m/z: 161.0453
Precursor type: [M-H]-
m/z	relative intensity
56.99545	2
57.03423	7
60.99283	94
67.01872	1
73.02942	6
75.96217	14
76.97002	140
79.95734	9
83.93075	2
94.97935	2
96.96007	18
99.9258	999
100.92587	111
113.02441	2
116.92845	866
134.89462	63
154.94722	4
