Mass spectrum: Tris(2-isopropylphenyl) phosphate; GC-EI-FT; MS; Positive
Name: Tris(2-isopropylphenyl) phosphate
Name: tris(2-propan-2-ylphenyl) phosphate
Class: Non-Natural Product; Organophosphate
Formula: C27H33O4P
Exact mass: 452.21165
SMILES: CC(C)C1=CC=CC=C1OP(=O)(OC2=CC=CC=C2C(C)C)OC3=CC=CC=C3C(C)C
InChI: InChI=1S/C27H33O4P/c1-19(2)22-13-7-10-16-25(22)29-32(28,30-26-17-11-8-14-23(26)20(3)4)31-27-18-12-9-15-24(27)21(5)6/h7-21H,1-6H3
Instrument: Thermo Scientific Q Exactive GC Hybrid Quadrupol-Orbitrap
Instrument type: GC-EI-FT
Ms type: MS
Ion mode: POSITIVE
Base peak: 437.18662
m/z	relative intensity
53.03873	1
55.01796	6
55.05432	7
57.07002	15
60.02074	2
65.0387	20
67.05435	4
68.0621	5
69.03356	1
69.0699	5
71.04912	4
71.08563	4
77.03859	120
78.04658	39
79.05425	88
80.06214	3
81.06988	16
82.04147	2
82.07777	2
83.04929	2
85.02846	3
85.1013	4
89.03859	8
90.04661	19
91.05423	313
92.06208	42
93.07013	47
94.04145	3
94.0779	7
95.04939	34
96.00419	3
96.05699	6
96.09338	6
98.03642	2
98.0729	16
101.05981	3
102.04652	15
103.05442	128
104.0623	28
104.98253	1
105.04492	11
105.07002	117
106.07775	14
107.04925	104
107.08581	77
108.05699	10
108.09351	10
109.06508	2
110.07266	2
110.1093	4
111.04403	1
111.11697	2
114.04654	3
115.05421	152
116.05786	17
116.06222	29
117.01869	3
117.06963	63
117.06997	130
118.07779	138
118.99801	5
119.04922	47
119.08583	39
120.05702	22
120.09334	8
121.06478	267
122.06828	26
123.11691	3
124.12495	2
125.05983	1
126.04665	2
126.06747	2
127.05397	2
127.05435	4
128.06223	11
129.06952	34
129.06992	14
129.09119	3
130.07803	1
131.04932	12
131.08548	13
132.05707	4
133.01386	5
133.06499	23
133.1012	2
134.03656	2
134.07274	16
134.10899	5
135.04419	1
135.06267	3
135.08072	128
135.11696	3
136.08818	26
136.12482	3
137.0088	4
137.13278	5
138.02705	7
138.99466	4
139.07561	2
141.01003	12
141.06982	36
142.07741	10
142.07787	3
144.09367	4
145.06494	2
145.10146	8
146.10895	3
149.01511	117
149.04495	4
149.09622	4
150.01843	6
150.06776	1
151.05429	3
151.1485	3
152.06209	52
152.0833	1
153.01	22
153.06995	38
154.07709	6
154.07761	13
155.06036	3
155.08527	14
155.08578	25
156.09363	2
157.12219	4
160.12483	1
160.95445	5
162.96994	8
163.05434	2
163.07558	2
164.06244	2
164.98546	3
165.0099	37
165.07022	73
165.1277	2
166.01794	6
166.07765	28
167.02583	157
167.08548	25
168.02902	12
168.05708	14
168.09334	5
169.00536	10
169.06476	35
169.1013	25
170.07271	6
170.10901	5
171.06552	5
171.11716	2
172.1248	4
173.1328	2
175.01546	16
175.05778	2
176.06215	8
177.06976	12
177.16365	1
178.07773	247
178.9823	1
179.02586	26
179.06072	2
179.08578	89
179.14304	1
180.09328	10
181.04108	16
181.06465	22
181.1001	4
181.1014	6
182.07262	9
182.10889	1
183.02036	59
183.08011	5
183.08078	12
183.11664	8
184.12497	3
185.09554	2
187.01544	8
189.07014	13
189.16379	1
190.0775	13
191.00139	8
191.08569	36
192.09334	28
192.9982	4
193.01688	4
193.05005	5
193.10103	23
194.07263	6
194.10963	5
195.08046	30
195.11706	4
196.084	7
196.12528	4
197.03645	15
197.06604	43
197.09573	18
197.13278	4
197.56821	10
199.0309	4
201.03114	42
202.03471	2
202.07785	7
202.17119	1
203.08514	14
203.17932	1
204.09314	8
205.10141	9
206.10947	9
207.08002	7
207.10234	2
209.09615	3
209.19031	4
211.08171	293
211.11142	12
211.14832	27
211.5838	91
212.08296	7
212.15155	5
213.16411	4
215.02538	74
215.04669	30
215.08556	2
215.17967	2
216.02908	8
218.10934	1
218.59334	6
219.11723	2
221.08446	3
221.13284	38
222.13609	6
223.11212	22
225.16438	17
226.07822	2
227.1281	3
228.09384	3
229.10112	2
230.13004	2
231.21117	2
233.03607	42
234.9726	2
235.1486	3
236.15602	19
237.12721	5
237.16446	7
239.08502	15
239.14282	17
239.23712	1
240.08838	4
241.04152	27
243.05762	8
249.03168	42
251.04639	89
252.05075	10
252.0937	8
253.10074	14
253.15941	10
255.05716	13
257.07236	11
259.05286	12
263.23709	2
265.02005	4
265.10129	4
267.00162	2
271.2417	2
273.06821	9
277.06232	19
283.04541	3
283.0881	5
284.04785	2
291.07809	26
292.08148	2
293.0939	28
294.09714	3
301.09903	6
301.13547	3
303.07858	12
313.27399	1
317.09378	18
319.10928	96
320.11209	15
325.06241	1
326.96582	4
327.07852	2
334.13376	20
335.14124	18
339.25287	2
353.09357	32
354.09814	5
367.1087	45
368.11322	8
379.10916	3
381.12573	5
393.1261	4
395.14151	284
396.14459	70
397.14746	8
400.98523	1
407.14008	5
409.15564	32
410.16153	6
421.15735	13
422.16144	4
435.17246	7
435.34546	2
436.1803	2
437.18662	999
438.19159	283
439.19486	44
440.1973	5
451.20261	55
452.21256	361
453.21545	104
454.21918	14
