Mass spectrum: PCB-74; GC-EI-FT; MS; Positive
Name: PCB-74
Name: 2,4,4',5-Tetrachlorobiphenyl
Class: Non-Natural Product; PCB
Formula: C12H6Cl4
Exact mass: 289.92236
SMILES: C1=CC(=CC=C1C2=CC(=C(C=C2Cl)Cl)Cl)Cl
InChI: InChI=1S/C12H6Cl4/c13-8-3-1-7(2-4-8)9-5-11(15)12(16)6-10(9)14/h1-6H
Instrument: Trace 1310 GC, Thermo Scientific; Q Exactive Orbitrap, Thermo Scientific
Instrument type: GC-EI-FT
Ms type: MS
Ion mode: POSITIVE
Retention time: 14.78752
Base peak: 291.9193
m/z	relative intensity
51.02297	2
53.03862	2
54.03389	1
54.99464	7
55.01785	3
55.05422	13
55.49388	5
56.06208	32
57.03347	2
57.06989	38
61.00737	11
62.0152	8
63.02292	5
63.96143	2
69.06989	2
72.47879	8
72.97793	20
73.00736	9
73.47734	4
73.51115	4
74.0152	67
74.51911	7
75.02298	103
75.52472	7
76.03079	10
77.03856	8
78.04199	2
78.04653	5
78.99575	4
82.07769	2
83.97619	15
83.99949	8
84.98399	12
85.00732	25
85.97327	5
86.0152	33
86.98107	4
87.02288	26
88.0308	2
89.03853	2
90.04644	1
91.49968	4
92.00343	114
92.05769	3
92.50516	18
93.00211	38
93.50376	5
95.01275	2
95.97605	4
96.98412	25
97.00744	8
97.9826	8
98.01516	85
98.98102	5
99.02304	75
100.0264	14
101.00893	4
101.03863	3
103.05428	2
106.51051	15
106.94511	6
107.50884	6
107.97608	20
108.94212	4
108.98396	42
109.00748	14
109.48791	9
109.98266	21
109.99197	240
110.01523	26
110.10908	1
110.49361	31
110.99023	151
111.02286	29
111.08064	1
111.49208	19
111.98874	22
112.01578	1
112.02628	2
113.03859	9
113.96466	4
114.06757	1
118.94522	4
118.9978	1
119.97636	4
119.9997	10
120.94205	2
120.98407	13
121.00736	11
122.01521	64
122.07272	1
122.98116	3
122.99947	5
123.0229	106
123.11673	2
123.49107	12
124.03094	34
124.48959	6
125.03854	20
126.04633	5
126.97232	109
127.4764	34
127.97105	122
128.06201	2
128.47481	31
128.96939	39
129.04488	3
129.07005	5
129.47321	10
129.96799	3
130.06543	1
130.94521	4
131.97621	11
132.98399	28
133.01369	4
133.97343	3
133.99184	12
134.98106	10
134.99962	6
135.02275	7
135.0805	1
135.98872	3
136.00748	17
137.03864	11
138.00455	5
139.00578	2
139.0542	2
140.9756	4
141.97401	4
142.94498	5
143.08545	3
143.95279	4
143.99962	2
144.05713	1
144.94228	4
144.96056	67
144.98384	10
145.46248	11
145.95903	95
146.01538	18
146.46101	12
146.93869	2
146.95784	40
146.9994	20
147.02289	28
147.45917	5
147.96548	10
148.00752	7
148.03068	43
148.99674	5
149.02358	1
149.0387	298
149.13246	1
150.04614	793
150.04762	83
150.05751	2
150.14041	1
151.04993	101
152.06232	4
155.06049	2
156.98404	8
157.9917	21
158.99939	21
159.98856	7
160.00752	34
160.99681	6
161.01053	3
162.00472	10
162.9696	2
163.00584	6
165.0027	2
165.06978	1
167.04909	11
167.95259	4
168.9606	12
168.98825	2
169.96866	33
170.9577	7
170.97209	2
170.9997	5
171.96556	22
173.01553	4
173.96231	3
177.04488	16
179.06016	2
179.9294	4
180.96022	6
181.96855	7
181.99161	6
182.95802	4
182.97597	4
182.99985	26
184.00711	307
184.99637	7
185.01527	178
186.0045	102
186.0188	31
187.01253	60
188.0159	10
191.00079	4
192.96118	6
193.96832	28
194.95795	3
194.97694	4
195.96558	18
201.00995	2
203.02562	24
203.92918	15
204.02916	2
205.0228	5
205.92639	12
207.03212	13
207.92389	4
209.02878	2
213.02159	72
214.02478	9
215.01871	23
216.02147	2
217.96866	14
218.93462	1
218.97658	20
219.96574	9
219.98408	778
220.00427	3
220.97359	12
220.98741	99
221.98071	488
222.98436	61
223.97855	79
224.98126	9
227.1787	2
227.92941	2
229.94562	4
231.94218	4
240.93718	1
246.9828	6
248.98009	5
253.94479	30
254.95378	10
255.94267	28
255.96152	6
256.94992	10
257.93973	8
257.95807	6
258.94772	3
289.92203	777
289.95254	1
290.92487	103
291.88324	2
291.89392	2
291.91928	999
291.93811	4
291.93945	2
292.92175	127
293.91577	483
294.91882	61
295.91342	107
296.91718	13
297.90958	6
