Mass spectrum: b-HCH; GC-EI-FT; MS; Positive
Name: b-HCH
Name: beta-hexachlorocyclohexane
Class: Non-Natural Product
Formula: C6H6Cl6
Exact mass: 287.86007
SMILES: C1(C(C(C(C(C1Cl)Cl)Cl)Cl)Cl)Cl
InChI: InChI=1S/C6H6Cl6/c7-1-2(8)4(10)6(12)5(11)3(1)9/h1-6H
Instrument: Trace 1310 GC, Thermo Scientific; Q Exactive Orbitrap, Thermo Scientific
Instrument type: GC-EI-FT
Ms type: MS
Ion mode: POSITIVE
Retention time: 10.80956
Base peak: 180.9372
m/z	relative intensity
53.03862	31
57.06987	80
60.02064	8
63.02297	15
65.0386	3
69.0699	235
70.07775	21
77.0386	248
78.04645	106
79.05424	80
80.06206	59
81.0699	144
83.08553	40
84.0934	59
85.1012	62
86.10456	42
87.04411	38
95.04919	15
96.02062	13
97.10124	78
101.05976	45
103.05426	10
107.04919	38
108.96069	444
109.10123	53
110.95772	291
114.04537	91
117.0573	9
121.10124	16
123.11686	42
124.12474	13
126.06759	156
126.14019	28
128.06209	5
134.10902	15
135.11687	52
137.09608	10
141.06988	5
146.97629	333
154.06238	43
165.06984	28
169.10118	7
171.11676	22
173.0631	115
175.14813	32
178.96463	11
180.93724	999
182.93434	946
184.93141	261
188.95445	9
191.00102	4
197.11716	72
202.07776	14
203.17941	11
216.91399	330
220.9081	169
224.9312	39
353.09103	7
