Mass spectrum: Dodecamethylcyclohexasiloxane (D6); GC-EI-FT; MS; Positive
Name: D6
Name: Dodecamethylcyclohexasiloxane
Class: Non-Natural Product; Cyclic Siloxane
Formula: C12H36O6Si6
Exact mass: 444.11275
SMILES: C[Si]1(O[Si](O[Si](O[Si](O[Si](O[Si](O1)(C)C)(C)C)(C)C)(C)C)(C)C)C
InChI: InChI=1S/C12H36O6Si6/c1-19(2)13-20(3,4)15-22(7,8)17-24(11,12)18-23(9,10)16-21(5,6)14-19/h1-12H3
Instrument: Thermo Scientific Q Exactive GC Hybrid Quadrupol-Orbitrap
Instrument type: GC-EI-FT
Ms type: MS
Ion mode: POSITIVE
Base peak: 167.0554
m/z	relative intensity
55.05426	3
57.0699	1
59.03115	27
60.03075	2
65.03858	3
67.05423	12
69.06989	4
73.0356	2
73.04678	999
73.0582	3
74.04636	59
76.04702	2
77.03858	7
79.05424	14
81.06991	11
83.08553	3
85.04682	2
87.0625	2
89.03859	2
91.05427	18
93.06995	5
95.08558	5
97.10126	1
103.00304	2
105.06994	5
109.10124	2
115.05427	7
117.01865	22
118.99794	2
128.06206	5
129.06987	4
131.0343	24
132.03387	3
133.01358	5
134.0495	2
135.02919	2
141.06982	3
143.08553	1
147.06546	250
149.04475	213
150.04439	24
151.04167	15
152.06201	2
155.08546	1
165.06979	2
167.05536	7
176.98529	3
178.96455	2
187.14806	0
191.00092	18
192.00049	3
193.01662	4
205.01662	2
207.03221	41
210.01108	3
221.08434	0
225.0428	19
227.02211	2
234.97295	1
248.98854	6
250.96777	6
252.98346	2
266.99915	10
268.97842	4
285.00967	2
287.00638	0
309.96301	2
314.96432	0
324.98621	210
339.00186	1
341.0174	281
359.02823	52
366.9787	0
397.02582	2
399.04147	0
429.08823	62
