Mass spectrum: mirex; GC-EI-FT; MS; Positive
Name: mirex
Name: Perchloropentacyclodecane
Class: Non-Natural Product
Formula: C10Cl12
Exact mass: 539.62623
SMILES: C12(C3(C4(C5(C3(C(C1(C5(C2(C4(Cl)Cl)Cl)Cl)Cl)(Cl)Cl)Cl)Cl)Cl)Cl)Cl
InChI: InChI=1S/C10Cl12/c11-1-2(12)7(17)4(14)3(13,5(1,15)9(7,19)20)6(1,16)10(21,22)8(2,4)18
Instrument: Trace 1310 GC, Thermo Scientific; Q Exactive Orbitrap, Thermo Scientific
Instrument type: GC-EI-FT
Ms type: MS
Ion mode: POSITIVE
Retention time: 22.59673
Base peak: 271.8095
m/z	relative intensity
52.01826	1
53.03862	3
55.05432	14
56.04948	1
56.06207	30
57.03359	1
57.06988	36
58.70954	5
59.20872	6
59.708	5
59.99952	6
61.00725	3
63.96149	3
64.96836	15
65.03855	2
67.45157	7
67.95071	11
68.02579	3
68.45007	8
68.94943	5
70.96832	11
72.96537	5
73.0469	2
76.95677	7
77.9552	8
77.98772	3
78.04196	1
79.04173	2
79.0542	2
81.04474	2
81.93719	7
82.06512	3
82.53474	2
82.96823	10
83.03661	2
83.08559	2
83.4512	7
83.93424	5
83.99949	28
84.04435	4
84.05696	1
84.44978	2
85.00732	8
86.0152	1
88.9511	2
88.96843	5
91.04176	1
93.05726	1
93.93712	14
94.07781	2
94.96826	127
95.93417	8
95.96701	25
96.00437	9
96.08088	2
96.96545	35
96.99386	1
97.06493	2
97.94098	1
98.07275	3
99.93735	9
100.00574	3
100.93571	7
101.93436	3
102.96674	4
103.44416	3
105.03348	2
105.93728	36
106.06529	2
106.94509	7
106.96854	6
107.9342	25
107.99957	19
108.94728	3
109.00743	5
112.45258	12
113.05981	1
113.45122	13
115.00302	2
116.9061	152
117.42168	64
117.92313	4
117.93724	40
118.07348	3
118.07759	5
118.42026	105
118.90311	164
118.96818	16
119.06052	2
119.41865	72
119.93436	30
119.99962	56
120.09348	2
120.4173	20
120.90028	52
120.96559	4
120.97738	2
121.00273	14
121.06496	1
121.90353	3
121.92706	10
122.01521	6
122.89701	5
125.9917	2
126.06764	2
128.04953	1
129.0547	1
129.93735	189
130.03328	4
130.93594	43
130.96811	10
131.43955	3
131.93428	130
131.97617	7
132.04454	3
132.0808	3
132.09354	2
132.93749	16
133.01366	8
133.06473	3
133.93138	18
140.90599	318
141.06998	1
141.42177	4
141.90956	10
141.93723	44
142.42036	6
142.90321	325
142.96832	30
143.91617	7
143.93422	26
143.97595	4
144.08084	2
144.90013	96
144.96529	11
145.91313	3
145.93111	5
146.89712	8
146.93869	4
147.06537	4
147.42168	9
148.42003	12
148.92403	10
149.02358	6
149.09633	1
149.41899	11
149.92244	6
150.02695	2
152.90607	27
153.90437	7
153.93727	15
154.0777	4
154.90317	24
154.96834	24
155.93422	10
155.97603	15
156.90013	6
156.96501	7
159.11681	2
160.0885	2
162.96954	3
164.90602	152
165.90442	47
165.93706	24
166.40616	1
166.90321	177
166.91191	9
167.40486	3
167.90175	25
167.93456	16
168.90039	42
168.91869	6
170.89711	3
170.9211	1
171.0807	1
176.90588	6
176.98541	3
177.93703	11
178.07794	2
178.38756	3
178.90335	6
179.00105	1
179.93456	6
180.90024	2
183.89261	8
184.38745	1
184.89108	6
185.89017	5
187.87498	13
188.90591	5
189.87184	17
189.93707	48
190.90311	6
191.00082	4
191.86865	6
191.9343	30
191.95285	13
192.94223	6
193.01656	2
193.93129	5
193.95013	7
199.87457	22
200.87315	59
200.90594	7
201.3752	3
201.87154	47
201.89073	3
202.87959	61
202.90294	8
203.86908	12
204.8765	20
205.89925	2
207.03212	57
207.10164	2
207.11684	1
208.03128	7
209.02873	3
211.87489	5
212.90567	5
213.87178	7
214.90282	4
215.17956	1
224.90605	15
225.91397	13
226.90334	12
227.91132	12
228.90025	5
229.90816	1
234.8441	487
235.84567	27
235.87502	7
236.84039	747
237.84412	45
237.87169	8
238.83748	480
238.85725	2
239.83989	28
239.8609	10
240.58928	1
240.83484	146
241.83786	8
241.85806	2
242.83212	23
248.84094	5
248.98848	2
258.84372	3
259.87488	51
260.841	7
261.87176	69
261.89099	10
262.83862	4
262.87524	4
263.86978	33
263.88828	14
265.86618	5
265.88477	6
269.81247	507
270.81659	22
270.84409	8
271.78308	3
271.80954	999
271.81677	3
272.81281	46
272.84048	13
273.80704	796
273.84958	2
274.81073	34
274.83005	4
275.80441	357
275.82156	3
276.8082	18
277.80151	89
278.8056	3
278.82312	6
279.79764	10
281.05148	5
281.8129	2
282.84433	14
283.81021	6
284.84061	23
285.80682	3
286.83807	15
286.85605	3
288.83487	6
294.84372	14
295.85205	15
296.84033	24
297.84927	25
298.83771	14
299.84515	18
300.83542	6
301.84329	5
303.7066	3
305.8129	17
307.80972	36
309.80621	28
311.80432	11
317.8129	6
319.80966	14
321.80649	10
323.80295	4
326.96555	1
329.81284	106
330.81641	10
331.81012	204
331.82788	12
332.81268	21
333.80594	158
333.82449	27
334.80994	17
334.82776	4
335.80331	66
335.8226	19
336.80777	6
337.80057	13
337.81924	8
341.84293	2
352.78192	15
354.77841	39
355.78272	3
356.77536	31
358.7731	18
360.7706	5
364.78098	6
366.77805	17
367.78552	15
368.77545	15
368.79413	7
369.78287	14
370.77341	10
371.78073	7
377.81851	3
399.75052	14
401.74643	36
402.75299	4
403.74384	38
404.74933	5
405.7413	23
407.73801	10
409.73547	3
