Mass spectrum: Tonalide; GC-EI-FT; MS; Positive
Name: Tonalide
Name: 7-Acetyl-1,1,3,4,4,6-hexamethyl-1,2,3,4-
Name: Tetrahydronaphthalene
Class: Non-Natural Product; Ketone
Formula: C18H26O
Exact mass: 258.19837
SMILES: CC1CC(C2=C(C1(C)C)C=C(C(=C2)C(=O)C)C)(C)C
InChI: InChI=1S/C18H26O/c1-11-8-16-15(9-14(11)13(3)19)17(4,5)10-12(2)18(16,6)7/h8-9,12H,10H2,1-7H3
Instrument: Thermo Scientific Q Exactive GC Hybrid Quadrupol-Orbitrap
Instrument type: GC-EI-FT
Ms type: MS
Ion mode: POSITIVE
Base peak: 243.1743
m/z	relative intensity
51.01042	1
51.02295	7
52.01821	1
52.03078	2
53.00224	1
53.03864	10
53.09791	3
53.41314	1
53.95998	1
54.03384	2
54.04642	3
54.09364	1
54.45105	1
55.01788	18
55.05427	32
55.16299	1
55.27503	1
55.44828	1
55.58479	1
56.02121	1
56.04949	1
56.05759	1
56.06208	9
56.22821	1
57.03353	3
57.06991	28
57.52686	1
58.04138	1
59.04916	2
60.02063	6
60.91762	1
60.97565	1
61.0073	1
61.02844	9
61.90877	1
62.01513	2
62.62811	1
62.64571	1
62.85968	1
63.02293	10
64.03078	3
65.0386	29
66.03387	1
66.04195	1
66.04645	7
67.04166	1
67.05426	49
68.0257	2
68.04951	1
68.05762	5
68.06211	5
68.99468	1
69.03353	5
69.06991	25
69.88973	1
70.04137	5
70.07326	2
70.07777	7
71.01279	1
71.04916	3
71.08557	7
73.00729	1
73.02845	13
73.04684	9
73.06483	1
74.01513	10
74.03626	6
74.04641	1
75.02296	7
75.0261	3
75.04411	1
76.03078	16
76.7532	1
77.03858	100
78.03385	2
78.04199	7
78.04643	91
78.80178	1
79.036	1
79.04169	4
79.0498	7
79.05424	94
80.04951	6
80.0576	6
80.06207	13
81.03355	5
81.05732	2
81.06541	1
81.06992	61
81.52682	1
82.04136	6
82.06517	5
82.07329	4
82.07774	13
82.53468	1
83.01276	1
83.04916	8
83.07296	1
83.08554	21
84.02829	1
84.04446	1
84.057	3
84.08898	1
84.09338	2
85.00726	1
85.02843	9
85.03607	2
85.06034	1
85.06483	1
85.10121	5
86.01512	3
86.03625	9
87.02296	4
87.02487	2
87.03963	1
87.04411	18
88.02417	1
88.03077	3
88.05192	9
88.57848	1
89.02048	3
89.0386	29
89.05975	1
89.76092	1
90.042	2
90.04649	4
90.27936	1
91.03608	2
91.04166	3
91.05423	275
92.0495	3
92.05762	21
92.0621	32
92.96016	1
93.03356	2
93.05736	2
93.06542	1
93.06995	36
93.61115	1
94.04135	4
94.05264	1
94.06518	3
94.0733	3
94.07777	6
94.41803	1
95.04471	1
95.0492	11
95.08558	29
96.00415	1
96.0444	2
96.05701	5
96.08075	1
96.08891	1
96.09339	5
97.02851	4
97.05224	1
97.06489	6
97.10126	12
98.01516	2
98.0363	30
98.0682	1
98.07269	5
98.10905	1
99.02301	1
99.0396	2
99.04412	13
99.08047	1
99.13934	1
100.0182	1
100.05199	1
100.76708	1
101.0386	1
101.05979	5
101.13136	1
101.2052	1
101.21307	1
101.21592	1
102.00049	1
102.04646	17
102.06758	3
103.04166	2
103.04979	2
103.05427	68
103.77195	1
104.04948	4
104.05766	4
104.06207	121
105.03355	7
105.04481	13
105.05733	1
105.06548	11
105.06994	84
105.09306	1
105.36285	1
106.03689	1
106.04139	9
106.04809	1
106.06519	5
106.0733	8
106.07777	10
106.35204	1
107.03656	2
107.0492	10
107.06851	1
107.07304	3
107.08559	23
108.04437	1
108.05704	5
108.06821	1
108.08079	3
108.08887	2
108.0934	4
108.55245	1
109.02847	1
109.05223	1
109.06485	9
109.10125	14
110.01511	1
110.03631	1
110.07263	3
110.09641	1
110.1046	1
110.10903	2
111.02293	1
111.04411	4
111.06786	1
111.08049	3
111.11693	6
112.05192	3
112.08828	1
112.12022	1
113.02334	1
113.03859	3
113.0597	3
114.0205	1
114.04162	1
114.04645	3
114.0676	21
114.0752	1
115.03905	8
115.05424	205
115.07089	1
115.07544	5
116.04237	1
116.04951	3
116.05763	22
116.0621	26
117.05733	6
117.06101	1
117.06533	2
117.06989	165
118.04134	2
118.05259	1
118.06067	1
118.0652	4
118.07327	16
118.07774	41
118.27036	1
118.67571	1
118.99802	1
119.03664	1
119.04919	4
119.06042	1
119.07296	2
119.08106	3
119.08559	51
120.05703	5
120.05807	1
120.08082	3
120.08895	7
120.09343	7
121.02844	2
121.06485	9
121.08856	1
121.09676	1
121.10122	19
121.41669	1
122.03626	2
122.07264	2
122.09648	1
122.10455	3
122.10904	4
123.04411	5
123.08047	5
123.11686	11
124.03931	2
124.04751	1
124.0519	1
124.07573	1
124.08833	2
124.1247	1
125.02343	4
125.04712	1
125.05977	2
125.09612	1
125.13252	2
125.62663	1
126.0312	3
126.04645	10
126.06309	1
126.06759	16
127.03899	3
127.04163	1
127.04979	1
127.05428	18
127.07088	1
127.07538	3
127.09661	1
127.97716	1
128.03688	1
128.04947	2
128.06203	254
128.08327	4
128.08444	1
128.38812	1
128.38928	1
129.04469	1
129.05461	1
129.05728	2
129.06544	31
129.06985	197
129.091	2
130.03993	1
130.04129	1
130.06522	10
130.06888	1
130.0733	19
130.07777	55
131.03433	1
131.04919	8
131.06039	3
131.07301	2
131.07657	1
131.08116	5
131.08557	132
132.05701	4
132.06818	1
132.08087	3
132.08893	14
132.0934	33
133.01364	4
133.0522	1
133.0648	6
133.07603	1
133.09225	1
133.09679	4
133.10123	25
134.0363	4
134.06003	2
134.07265	2
134.09647	1
134.10461	3
134.10898	5
135.03969	1
135.04407	5
135.05533	1
135.06244	3
135.06793	1
135.08044	6
135.10435	1
135.11687	12
136.05188	3
136.08829	1
136.11212	1
136.12468	3
137.03853	1
137.04173	1
137.05978	2
137.13252	4
137.26445	1
138.04649	1
138.14032	1
139.03896	2
139.05424	15
139.07535	2
139.37056	1
140.04947	2
140.05763	1
140.06218	3
140.88374	1
141.05721	1
141.06985	196
141.09097	1
142.06242	3
142.06517	2
142.0733	23
142.07771	168
142.43497	1
143.04927	1
143.06042	1
143.07034	8
143.073	5
143.07657	1
143.08113	20
143.08554	143
144.05562	1
144.05705	4
144.08083	7
144.08893	18
144.09337	34
145.0648	13
145.07591	1
145.08861	2
145.09691	5
145.10114	294
145.96848	2
146.06831	1
146.07265	30
146.09637	3
146.10455	39
146.10901	6
146.93842	1
147.04402	2
147.06557	4
147.07596	3
147.08046	27
147.10439	1
147.10786	1
147.11218	1
147.11685	12
148.05193	2
148.05894	1
148.07553	1
148.08379	3
148.08821	1
148.11211	1
148.12015	1
148.12459	2
149.045	1
149.05975	2
149.09613	2
149.11998	1
149.13257	5
149.23755	1
149.56206	1
150.04639	5
150.0675	2
150.10416	1
150.14029	2
151.02414	2
151.039	2
151.05432	7
151.0753	1
152.04674	1
152.06209	40
152.07053	1
152.0831	2
153.05463	1
153.05736	1
153.06541	5
153.06987	96
153.09099	1
154.06244	7
154.06511	3
154.07323	14
154.0777	42
155.04916	2
155.06036	46
155.07022	3
155.07654	1
155.08118	7
155.08549	115
155.5493	1
156.05698	1
156.06369	6
156.06801	1
156.08081	5
156.08897	13
156.09337	84
157.06483	9
157.07599	1
157.08589	2
157.08852	3
157.09685	10
157.10115	174
157.13721	1
158.0726	7
158.09639	1
158.10455	24
158.10901	20
159.08049	9
159.09164	1
159.11674	487
160.05191	1
160.07556	1
160.08385	1
160.0883	4
160.12019	67
161.05972	6
161.0961	6
161.12344	4
161.13252	8
162.03113	1
162.06755	2
162.14034	1
163.05424	1
163.07524	1
163.11169	1
163.14809	3
164.06209	3
164.08315	1
165.0699	34
165.12746	1
166.06502	1
166.07327	4
166.07765	10
167.07289	3
167.08553	28
168.08073	3
168.08885	5
168.09334	13
169.06483	8
169.07602	2
169.08878	1
169.09668	2
169.10115	53
170.07262	12
170.09637	2
170.10454	8
170.10898	45
171.07588	1
171.08044	14
171.09161	2
171.10429	1
171.10782	1
171.11237	6
171.11679	68
171.56123	1
172.08369	2
172.08824	3
172.09964	1
172.12012	11
172.12462	5
173.05965	1
173.08548	1
173.09608	26
173.10732	1
173.12349	1
173.13248	31
174.06761	1
174.09953	3
174.12767	1
174.13586	5
175.0753	4
175.11176	2
175.14812	3
176.062	2
177.09105	1
178.07767	8
178.17166	1
179.03391	1
179.06038	2
179.07286	1
179.08102	2
179.08549	8
180.07814	2
180.0807	3
180.08885	1
180.09325	3
181.06468	2
181.07591	2
181.08585	2
181.0882	1
181.09697	1
181.10115	7
182.07251	1
182.08398	1
182.09644	2
182.10893	2
183.08046	17
183.09154	1
183.10428	1
183.11684	18
184.06393	1
184.08388	3
184.08832	11
184.11215	2
184.12012	3
184.12465	25
185.09607	47
185.1198	1
185.12798	4
185.13248	31
186.09944	6
186.10378	4
186.12773	1
186.13588	5
186.14021	2
187.11163	455
187.14809	6
188.11508	65
188.15155	1
188.15599	1
189.06972	2
189.11836	5
189.12738	1
189.16374	4
190.06522	1
190.07758	1
190.09872	3
190.17136	1
191.00095	3
191.08546	3
191.10663	1
192.0005	1
192.08063	1
192.09325	3
192.11444	1
192.98033	1
193.01674	1
193.04991	6
193.08853	2
193.10112	3
194.09639	2
194.10898	2
195.08035	2
195.10416	1
195.11673	3
196.0883	1
196.12457	4
197.0961	19
197.13237	3
198.09944	2
198.10396	5
198.1358	1
198.14029	1
199.03069	1
199.10757	1
199.11172	22
199.14812	31
200.10426	1
200.11513	3
200.11954	5
200.15164	5
200.15587	8
201.04634	1
201.09096	1
201.12733	149
201.16374	46
202.07762	2
202.13071	20
202.16716	7
202.35774	1
203.07288	1
203.08536	2
203.13406	3
203.1794	3
204.08072	2
204.11449	3
205.08844	1
205.101	1
206.09645	1
207.10196	5
207.11667	1
208.07298	4
208.0966	1
208.12471	1
209.08075	3
209.13249	2
210.10381	1
210.14037	1
211.06047	1
211.07538	1
211.11174	5
212.08319	8
212.11957	3
213.05797	1
213.08652	2
213.09102	6
213.12741	18
213.1638	2
214.09869	1
214.13074	3
214.17162	1
215.08565	2
215.14307	1
217.08855	1
217.10123	1
217.19519	1
218.09621	1
219.11674	1
221.08429	2
222.08852	1
224.15582	1
225.04292	5
225.16368	2
226.04236	1
226.09879	1
227.14308	22
228.11456	1
228.1465	3
228.15096	5
229.10094	1
229.15886	3
229.19514	20
230.13019	1
230.16209	1
230.19858	4
231.2108	5
239.08559	1
241.10132	1
241.15872	4
242.162	1
242.16647	2
242.20273	1
242.37231	1
243.10387	1
243.17432	999
243.22769	1
243.24327	1
244.17776	180
245.18138	13
248.9886	2
251.22475	1
251.8102	1
254.09647	1
255.12294	1
257.19009	1
257.22662	1
258.12515	2
258.19797	150
259.20135	33
259.24213	1
260.2049	2
263.14325	1
264.46426	1
265.01999	3
266.9993	1
270.23441	1
272.25018	5
277.07764	2
281.0513	6
315.26752	1
327.03601	1
328.79947	2
338.49335	1
342.01651	1
372.84549	1
374.70605	1
