Mass spectrum: Galaxolide; GC-EI-FT; MS; Positive
Name: Galaxolide
Name: 1,3,4,6,7,8-Hexahydro-4,6,6,7,8,8-hexamethylcyclopenta-(g)-2-benzopyran
Class: Non-Natural Product; Polycyclic musk
Formula: C18H26O
Exact mass: 258.19837
SMILES: CC1COCC2=CC3=C(C=C12)C(C(C3(C)C)C)(C)C
InChI: InChI=1S/C18H26O/c1-11-9-19-10-13-7-15-16(8-14(11)13)18(5,6)12(2)17(15,3)4/h7-8,11-12H,9-10H2,1-6H3
Instrument: Thermo Scientific Q Exactive GC Hybrid Quadrupol-Orbitrap
Instrument type: GC-EI-FT
Ms type: MS
Ion mode: POSITIVE
Base peak: 243.1743
m/z	relative intensity
50.01513	1
50.2789	1
50.57565	1
50.60437	1
51.02294	6
52.02632	1
52.03079	2
52.48944	1
52.79761	1
53.00222	1
53.03862	11
53.31253	1
53.66516	1
53.90608	1
54.03386	2
54.04642	3
54.38034	1
55.01788	23
55.05426	34
56.02569	1
56.04947	1
56.05761	3
56.06208	11
56.85595	3
57.03352	6
57.05734	1
57.06991	32
57.52686	2
57.76898	1
58.04139	1
58.07327	2
59.04916	2
60.02063	5
60.4337	1
60.91758	1
61.02843	10
62.01513	4
62.62808	1
63.02293	9
63.96141	1
64.01826	1
64.0308	2
65.0386	31
66.04195	2
66.04644	9
67.05425	56
68.02573	2
68.04955	1
68.05762	4
68.0621	6
68.99469	2
69.03352	5
69.05733	1
69.0699	31
69.52461	1
70.04137	6
70.06517	2
70.07327	2
70.07775	11
71.01275	2
71.0386	1
71.04918	3
71.08556	6
73.02844	16
73.04684	11
73.06488	1
73.12726	1
73.95967	1
74.01511	14
74.03625	6
74.04639	1
74.58285	1
75.01038	1
75.02297	11
75.02611	3
76.03078	22
76.53241	1
77.03413	1
77.03858	109
78.03388	2
78.04197	8
78.04643	105
78.8315	1
79.00101	1
79.04167	2
79.04979	8
79.05424	102
80.02567	1
80.04949	6
80.0576	8
80.06207	15
81.03355	6
81.05287	1
81.05733	3
81.06544	1
81.06992	69
81.52689	2
81.73692	1
82.04135	4
82.06515	5
82.07327	5
82.07774	12
82.53468	2
83.03857	4
83.04914	8
83.08107	1
83.08554	26
84.0206	1
84.04642	3
84.05701	3
84.08081	1
84.08887	2
84.09339	3
85.0073	1
85.02845	10
85.05421	1
85.06483	1
85.10122	6
86.01512	3
86.03625	13
86.58128	1
87.02297	8
87.0248	2
87.04411	22
88.02415	2
88.03078	2
88.04746	1
88.05191	10
89.02049	3
89.0386	25
90.04198	2
90.04645	7
90.27892	1
91.0416	1
91.05422	294
91.7961	1
92.02568	1
92.04951	3
92.05762	22
92.06209	40
93.03355	1
93.05739	5
93.06546	2
93.06995	46
94.04138	5
94.06519	5
94.0733	4
94.07774	8
94.53474	1
95.04918	14
95.06044	1
95.07301	2
95.07935	1
95.08556	29
95.20377	1
96.03386	2
96.0444	2
96.05699	6
96.08083	3
96.08891	2
96.0934	8
97.02846	3
97.05232	1
97.06484	5
97.10124	13
98.01513	3
98.03629	36
98.07265	3
98.10461	1
99.03966	1
99.04411	17
99.08041	1
100.04746	1
100.0519	2
101.03862	1
101.05977	6
102.04646	24
102.06762	4
102.34361	1
103.04171	3
103.04984	1
103.05427	70
104.02568	1
104.03696	1
104.0495	3
104.05758	6
104.06207	130
105.03357	5
105.04479	14
105.05739	2
105.06551	10
105.06994	76
106.02871	1
106.04136	9
106.06517	7
106.07329	9
106.07778	7
107.03661	2
107.04917	11
107.07301	5
107.08121	1
107.08557	25
108.04441	1
108.05251	1
108.05701	4
108.06824	1
108.0808	3
108.08891	2
108.09338	5
109.05222	1
109.06485	10
109.08869	1
109.10125	14
110.03629	1
110.06014	1
110.07265	2
110.09645	1
110.10449	1
110.10906	3
111.04409	6
111.08044	1
111.11688	6
112.05191	1
113.0386	5
113.05975	4
114.03397	1
114.04192	1
114.04647	3
114.06759	23
115.03904	8
115.05424	211
115.07543	5
116.04951	3
116.05764	21
116.06209	29
117.05735	4
117.06541	3
117.06989	159
117.09102	1
118.04131	2
118.05264	1
118.06514	5
118.07326	20
118.07773	41
118.99799	2
119.03668	1
119.04921	3
119.06043	2
119.07299	2
119.07943	2
119.08109	5
119.08559	48
120.04449	1
120.05701	6
120.08086	5
120.08566	1
120.08887	4
120.09341	8
121.06485	8
121.08431	1
121.08865	1
121.0919	1
121.09686	1
121.10122	27
122.03625	4
122.06005	1
122.07266	3
122.09649	2
122.10132	1
122.10457	3
122.10907	7
123.04408	6
123.08043	2
123.11237	1
123.11686	12
124.05195	3
124.12023	2
124.12469	2
125.02324	1
125.03862	1
125.04723	1
125.05984	4
125.13253	1
125.74876	1
126.03119	3
126.04646	9
126.06758	14
126.63598	1
127.03902	5
127.04975	2
127.0543	17
127.07098	2
127.07542	2
128.04956	2
128.06203	250
128.08322	4
129.04477	2
129.0547	2
129.05733	3
129.06544	30
129.06984	257
129.09103	3
130.06519	9
130.06888	1
130.07332	26
130.07462	1
130.07776	48
131.04919	9
131.0686	1
131.073	3
131.07671	1
131.08113	7
131.08557	103
132.05252	2
132.05704	2
132.06828	2
132.08083	4
132.08722	3
132.08891	13
132.09341	20
133.0136	4
133.06357	1
133.06483	7
133.07605	2
133.08873	2
133.09348	4
133.09505	2
133.09669	1
133.10121	23
134.0186	1
134.03627	7
134.0601	2
134.07272	4
134.09647	2
134.09979	3
134.10129	2
134.10448	1
134.10907	5
134.99274	1
135.04416	5
135.06247	2
135.08047	6
135.10603	1
135.10757	1
135.11687	12
136.05196	3
136.1122	1
136.11375	1
136.12471	3
137.04182	1
137.05995	1
137.09615	3
137.12318	3
137.13252	5
138.04642	1
138.12779	1
138.12952	1
139.03246	1
139.03896	2
139.05423	16
139.07538	4
139.13574	2
139.14816	1
140.04691	1
140.04947	3
140.05753	2
140.06206	2
141.05742	1
141.06984	210
141.09105	1
142.0625	3
142.06517	3
142.07329	26
142.07771	133
143.04903	1
143.06033	1
143.0703	9
143.07288	4
143.07671	2
143.08115	14
143.08551	244
144.05699	6
144.08081	7
144.0889	29
144.09337	20
145.06482	24
145.07605	1
145.08435	1
145.0887	3
145.09227	2
145.09499	3
145.09673	2
145.1012	52
146.06821	2
146.07263	37
146.09644	2
146.10127	3
146.10457	8
146.10898	3
146.93855	1
147.04407	1
147.06561	7
147.07596	4
147.08046	27
147.10757	2
147.10909	3
147.11684	13
148.0838	3
148.08818	1
148.11214	1
148.11374	2
148.11537	2
148.11694	2
148.12015	2
148.12462	3
149.02335	1
149.03854	1
149.04492	3
149.05971	2
149.09615	2
149.12007	2
149.1217	2
149.12328	1
149.1263	2
149.13254	9
150.04645	2
150.06754	2
150.12784	3
150.12955	2
150.13103	1
150.13257	9
150.13579	1
150.14037	2
151.02414	2
151.039	2
151.04158	1
151.0542	8
151.07539	2
151.1358	2
151.13882	3
151.14807	1
152.06206	73
152.07057	1
152.14523	2
153.05458	2
153.05733	1
153.06541	10
153.06985	143
153.09114	2
153.15138	7
154.06244	7
154.06511	4
154.07323	16
154.07768	77
154.15475	1
155.06035	43
155.06854	1
155.07024	3
155.07301	3
155.08115	9
155.08548	182
156.06372	5
156.08084	8
156.0889	29
156.09334	99
156.5302	1
157.06482	7
157.08598	1
157.08865	4
157.09679	11
157.10115	171
158.06819	1
158.07265	9
158.09647	4
158.09995	1
158.10452	22
158.10899	11
158.96661	1
159.0441	1
159.07593	1
159.08046	15
159.10434	2
159.1076	1
159.11243	2
159.11681	45
160.08376	1
160.08829	3
160.11691	5
160.12018	7
160.12463	4
161.05965	4
161.09605	3
161.12474	3
161.13245	6
162.04619	1
162.0675	4
162.13246	2
162.14026	3
163.0542	5
163.07529	3
163.13567	3
163.13889	1
163.14182	1
163.1481	3
164.05754	1
164.062	4
164.14346	2
164.14516	2
164.14819	5
165.06987	77
165.15143	3
165.1544	6
165.96407	1
166.06512	2
166.07324	12
166.07767	24
166.15475	1
166.15749	1
166.16081	2
167.07031	1
167.07301	3
167.08116	3
167.08549	88
167.16702	17
167.17229	1
168.05699	1
168.06816	1
168.07629	1
168.08084	3
168.08893	12
168.09334	62
168.17021	4
168.1732	2
169.06479	8
169.0761	2
169.08855	1
169.09686	9
169.10114	151
169.17961	3
170.06813	1
170.07257	6
170.09636	3
170.10455	20
170.10896	89
170.18289	1
170.18588	5
171.07599	1
171.08046	10
171.09161	1
171.10422	1
171.11247	14
171.11674	213
172.08379	2
172.08826	9
172.12016	29
172.12463	9
172.6776	1
173.05962	2
173.07069	1
173.08365	1
173.09164	1
173.0961	31
173.12344	2
173.12805	2
173.13249	28
174.06754	1
174.09111	1
174.09944	3
174.10379	1
174.13576	2
174.14021	1
175.07535	2
175.11171	2
175.14809	3
176.06215	4
176.08316	1
176.15601	1
176.98538	2
177.05704	1
177.0699	1
177.09097	1
177.16379	2
177.57774	1
178.07765	16
178.15909	1
179.06042	2
179.08087	2
179.08554	18
179.16701	3
180.07829	1
180.08072	3
180.08885	3
180.09329	5
181.04944	1
181.06473	3
181.076	1
181.08583	2
181.08847	2
181.09663	1
181.10112	27
182.0726	3
182.09633	2
182.10448	5
182.10902	25
182.18588	2
182.59814	1
183.03587	1
183.08047	7
183.10434	1
183.11679	123
183.19522	1
184.08826	10
184.11211	1
184.12021	19
184.1246	41
185.05971	2
185.09608	15
185.12799	7
185.13243	122
186.09935	2
186.10396	4
186.12796	1
186.13586	19
186.14029	23
187.11171	79
187.13937	1
187.14363	3
187.14815	6
188.0179	1
188.04695	1
188.10439	1
188.11516	11
188.11954	36
188.15596	2
189.05478	1
189.06987	3
189.12296	6
189.12735	1
189.16376	2
190.07321	1
190.0777	2
191.00105	3
191.07289	1
191.08534	4
191.10664	2
191.13676	1
191.14305	1
191.17944	2
192.00058	1
192.09335	4
192.11443	1
192.14305	16
192.18289	1
192.98035	2
193.01675	1
193.0499	4
193.08865	1
193.09663	1
193.1011	4
193.14644	4
193.14941	7
193.18268	1
194.09636	2
194.1046	1
194.10904	4
194.15587	1
195.08066	2
195.11252	1
195.11682	7
195.16193	14
196.08827	1
196.112	1
196.1201	1
196.12463	8
196.16527	2
196.16809	2
197.07809	1
197.0961	10
197.13246	37
198.09949	2
198.10394	3
198.1358	6
198.14027	69
199.11174	6
199.14371	9
199.14807	19
200.08324	1
200.10431	1
200.11501	1
200.11951	1
200.15146	4
200.15599	3
201.09094	2
201.12733	57
201.16371	3
202.07776	4
202.09875	1
202.12761	1
202.13069	6
203.07278	1
203.17949	1
204.09343	1
204.11453	1
205.10115	2
205.83736	1
206.10887	1
206.15875	2
206.68483	1
207.10196	3
207.11685	3
207.16516	1
207.19843	1
208.073	5
208.12465	3
208.2057	1
209.08095	4
209.10724	1
209.13246	5
209.17509	1
209.17758	6
209.21394	3
210.10402	1
210.13597	1
210.14029	10
210.18095	1
210.2173	1
210.99086	1
211.11189	4
211.14372	2
211.14821	4
212.08315	6
212.11946	6
212.15146	1
212.15593	4
212.19626	2
212.23291	1
213.08672	2
213.09097	8
213.12283	1
213.12726	5
213.16365	452
214.09439	1
214.13081	1
214.13531	2
214.1671	76
215.08554	3
215.10667	70
215.14305	23
215.17052	6
215.17947	6
216.08075	1
216.08888	1
216.09303	1
216.11005	13
216.14639	2
216.15092	1
217.19516	3
218.10893	2
221.0844	3
222.08446	1
222.08824	1
224.15572	1
225.04289	6
225.06058	1
225.12743	2
225.16377	19
226.04248	1
226.09897	2
226.13512	1
226.16718	5
226.16991	1
227.12776	2
227.14301	19
227.17932	4
228.09317	1
228.14644	2
228.1508	3
228.18729	22
228.33545	1
229.15434	1
229.19069	3
229.19511	9
230.13017	12
230.19844	1
231.21089	2
232.21419	1
236.10422	1
239.08549	1
239.17943	1
241.15871	11
242.16188	1
242.1667	3
242.18195	1
242.20291	1
243.10545	1
243.1743	999
243.24467	1
244.12424	1
244.17775	189
245.18132	16
246.18449	1
248.98848	1
250.21822	4
251.22467	53
251.80968	1
252.22795	9
253.01675	1
253.23132	1
253.23727	3
254.2435	24
255.12282	2
255.24689	5
256.18222	5
257.19006	13
257.22678	1
258.12518	3
258.19794	138
258.22983	1
259.20129	27
260.20462	4
261.20792	1
265.02014	1
266.99921	1
267.06952	1
268.26065	1
269.26706	12
270.27066	2
272.25006	8
273.25339	2
277.07779	3
277.15927	1
280.00012	1
280.15918	1
281.05127	5
282.05051	1
282.07214	2
283.04773	1
285.58942	1
290.94211	1
292.50558	1
308.08682	1
327.03613	1
357.60724	1
369.78842	1
