Mass spectrum: PCB-128; GC-EI-FT; MS; Positive
Name: PCB-128
Name: 2,2',3,3',4,4'-Hexachlorobiphenyl
Class: Non-Natural Product; PCB
Formula: C12H4Cl6
Exact mass: 357.84442
SMILES: C1=CC(=C(C(=C1C2=C(C(=C(C=C2)Cl)Cl)Cl)Cl)Cl)Cl
InChI: InChI=1S/C12H4Cl6/c13-7-3-1-5(9(15)11(7)17)6-2-4-8(14)12(18)10(6)16/h1-4H
Instrument: Trace 1310 GC, Thermo Scientific; Q Exactive Orbitrap, Thermo Scientific
Instrument type: GC-EI-FT
Ms type: MS
Ion mode: POSITIVE
Retention time: 19.99125
Base peak: 289.9034
m/z	relative intensity
51.02292	6
52.01827	1
53.03861	14
54.03388	4
54.04647	3
54.49084	10
55.01794	5
55.05431	26
56.06206	57
57.06987	47
58.04134	3
58.07328	2
61.00737	25
62.0152	9
63.0229	6
63.96143	6
65.03854	4
67.05433	11
68.06208	3
68.99477	2
70.04138	2
70.07774	4
71.97488	14
71.98782	3
72.47414	11
72.98412	11
73.00736	64
73.02846	4
73.5113	41
74.01518	71
75.02296	22
77.03854	3
77.98791	10
78.04651	11
80.04957	5
80.06207	8
81.03358	5
81.06999	8
82.0651	11
82.07768	5
83.03668	2
83.97614	40
83.99947	37
84.04451	4
84.05694	3
84.98399	18
85.0073	82
85.06473	4
85.97324	15
86.01518	61
86.03619	7
86.98106	6
87.02309	12
89.03852	4
89.0597	2
89.95849	7
90.04647	2
90.49178	27
90.99562	34
91.05432	21
91.4997	31
91.99418	11
92.4982	5
93.06999	11
94.02882	1
94.96824	9
95.0127	1
95.08556	2
95.9762	22
96.00426	9
96.05704	4
96.98406	27
97.00738	17
97.05234	2
98.01514	154
98.10923	1
99.02301	47
99.04416	2
103.0416	2
104.02564	3
104.94597	2
105.06983	1
105.99905	2
106.06525	3
106.94514	27
107.08561	1
107.97607	90
107.99955	21
108.05712	5
108.06828	1
108.09331	3
108.47996	31
108.94217	18
108.9839	309
109.00737	61
109.0649	4
109.48568	53
109.98265	200
110.01517	61
110.48418	20
110.98109	47
111.0228	19
113.05985	3
113.96465	8
114.96299	5
115.05431	8
115.07535	1
117.05746	3
117.48555	5
117.93723	10
118.07347	2
118.07791	4
118.48392	2
118.94519	19
119.07307	2
119.97628	24
119.99958	57
120.09347	2
120.94204	10
120.98408	20
121.00732	58
121.06485	5
121.97327	6
122.01518	149
122.03621	1
122.09663	1
122.1089	2
123.00787	7
123.02282	51
123.04412	1
123.08042	5
125.07082	1
125.96435	123
126.0676	2
126.46851	40
126.96306	134
127.05434	1
127.46712	35
127.96169	41
128.46542	11
129.0547	1
129.06563	6
130.06499	3
130.0777	6
130.94513	28
131.06067	1
131.08559	11
131.93428	8
131.97618	24
131.99977	17
132.0808	2
132.09331	2
132.94203	22
132.98395	57
133.01355	23
133.1013	3
133.97339	8
133.99173	4
134.01546	11
134.03627	2
134.07259	3
134.96973	16
134.98096	33
135.02318	15
135.04419	2
135.08038	2
135.96829	14
136.05214	1
136.96719	2
137.03862	23
137.05971	1
138.10422	2
139.11182	2
140.05795	4
140.47163	12
141.06993	3
141.47008	13
141.93724	15
142.94499	33
143.073	2
143.08531	4
143.107	4
143.44893	13
143.94351	17
143.95274	663
143.97626	22
143.99953	35
144.05713	3
144.08072	4
144.45459	92
144.95157	864
144.98398	33
145.00743	33
145.03972	3
145.065	4
145.08847	6
145.1011	2
145.45299	108
145.94997	409
145.96849	6
146.01531	199
146.07266	2
146.09631	1
146.10907	2
146.45137	51
146.94821	89
146.98126	9
146.99944	18
147.02284	244
147.45003	12
147.94713	8
148.03066	266
148.91769	3
148.99672	3
149.02354	9
149.03418	32
149.09633	2
149.13246	6
150.0466	2
152.09448	2
153.02132	2
153.07008	3
153.91411	14
153.93718	3
154.0777	3
154.9451	10
155.06042	2
155.08542	3
155.91121	13
155.9342	2
155.97598	54
156.9608	4
156.98396	58
157.1012	3
157.97304	17
157.99152	43
158.96658	2
158.98111	17
159.08069	1
159.1167	3
159.98908	8
160.93321	41
160.95402	4
161.09607	2
161.43738	102
161.93159	78
162.14032	2
162.4361	154
162.93036	50
162.96947	3
163.05443	2
163.14825	2
163.43445	105
163.92897	25
164.43317	35
164.98563	1
165.06976	3
166.9455	19
167.07295	4
167.95299	24
167.97594	4
168.08055	2
168.9604	23
168.98412	12
169.94966	5
169.96809	4
170.95754	22
170.98108	2
170.99968	14
171.11655	5
171.13838	2
174.10461	2
176.98532	5
178.92189	54
178.96494	2
179.00101	1
179.06079	2
179.42334	7
179.92023	119
179.97603	12
180.09335	2
180.42197	13
180.9185	98
180.96034	14
180.98386	22
181.4204	14
181.91716	44
181.96854	11
181.99152	231
182.07271	2
182.91618	11
182.95801	12
182.98126	10
182.99974	313
183.08093	2
183.11684	2
183.98892	77
184.00308	53
184.99681	109
186.0004	21
189.0697	5
191.00076	18
191.08574	5
191.14328	2
191.95276	64
192.00067	3
192.09352	4
192.91924	1
192.96095	20
192.98032	9
193.05017	1
193.95004	42
193.96899	9
194.10898	1
194.95793	7
197.13231	2
201.01006	21
202.92156	8
203.17938	1
203.92979	76
204.91888	9
205.92693	68
206.95778	5
207.03203	42
207.10246	2
207.11685	1
207.92366	21
208.03116	9
209.02953	5
212.0836	4
214.92227	9
215.953	23
216.9608	78
217.94955	18
217.96843	781
218.9581	58
218.97185	105
219.96564	524
220.95479	5
220.96872	61
221.09676	1
221.96288	84
222.96555	8
227.92889	13
228.91885	6
229.92688	14
231.92415	3
234.97162	9
237.89041	3
239.88785	3
251.92929	80
252.93788	103
253.92622	83
253.92949	16
254.93478	96
255.92406	25
255.93826	11
256.9314	30
261.89099	8
263.88806	9
266.99942	2
280.94403	11
281.0513	8
282.05173	1
282.94107	14
283.03049	2
283.04837	4
286.89908	5
287.88748	4
287.9057	784
288.90967	92
289.90335	999
290.90179	9
290.9071	126
291.90048	505
292.90384	65
293.89801	111
294.90109	15
295.89426	7
299.06216	2
321.86661	9
322.87457	367
323.86395	15
323.87958	41
324.87183	575
325.86099	9
325.87677	68
326.86868	385
327.87018	15
327.87335	42
328.86636	120
329.86908	14
330.86298	19
341.01834	2
357.84442	282
358.84726	35
359.84183	539
360.84402	62
361.83756	427
362.84076	53
363.8349	180
364.83902	21
365.83206	41
366.83682	2
367.83057	4
