Mass spectrum: Octamethyltrisiloxane (L3); GC-EI-FT; MS; Positive
Name: L3
Name: Octamethyltrisiloxane
Class: Non-Natural Product; Organosiloxane
Formula: C8H24O2Si3
Exact mass: 236.10841
SMILES: C[Si](C)(C)O[Si](C)(C)O[Si](C)(C)C
InChI: InChI=1S/C8H24O2Si3/c1-11(2,3)9-13(7,8)10-12(4,5)6/h1-8H3
Instrument: Thermo Scientific Q Exactive GC Hybrid Quadrupol-Orbitrap
Instrument type: GC-EI-FT
Ms type: MS
Ion mode: POSITIVE
Base peak: 221.08406
m/z	relative intensity
56.06204	3
62.91206	1
73.04679	523
75.04364	29
77.03854	6
89.03854	1
95.01452	2
102.96662	1
105.06989	6
115.00298	26
117.01862	40
119.03427	12
126.04636	1
131.03426	50
133.0135	82
135.02913	6
145.04985	12
145.10107	1
147.06549	57
151.02405	25
158.97476	6
175.006	16
177.02164	11
187.00583	2
195.77522	1
221.08406	999
222.08372	153
239.07263	1
