Mass spectrum: PCB-33; GC-EI-FT; MS; Positive
Name: PCB-33
Name: 2',3,4-Trichlorobiphenyl
Class: Non-Natural Product; PCB
Formula: C12H7Cl3
Exact mass: 255.96133
SMILES: C1=CC=C(C(=C1)C2=CC(=C(C=C2)Cl)Cl)Cl
InChI: InChI=1S/C12H7Cl3/c13-10-4-2-1-3-9(10)8-5-6-11(14)12(15)7-8/h1-7H
Instrument: Trace 1310 GC, Thermo Scientific; Q Exactive Orbitrap, Thermo Scientific
Instrument type: GC-EI-FT
Ms type: MS
Ion mode: POSITIVE
Retention time: 12.57588
Base peak: 186.0228
m/z	relative intensity
52.03074	1
54.20505	2
55.05431	10
56.06206	19
57.06988	21
58.07328	1
61.00733	4
62.01516	9
63.02301	3
63.9886	5
64.03079	1
64.48792	4
65.03867	1
67.05433	10
68.0577	1
69.03354	1
70.07774	1
72.98393	5
73.00735	4
73.0469	1
74.01518	44
74.51909	2
75.02296	113
75.52473	7
76.03078	13
77.03854	13
78.04207	2
78.04652	5
78.99574	1
79.05418	3
80.00346	9
81.00206	3
82.07768	2
83.04922	1
83.97613	5
83.99947	3
84.98401	8
85.00732	11
85.06477	1
86.0152	20
87.02308	19
88.03079	4
89.03873	7
89.53002	10
91.05434	11
92.0034	22
92.05769	1
92.50749	5
93.01124	115
93.51297	14
94.00998	33
94.51143	4
95.08557	26
96.05724	1
96.09347	1
96.98414	13
97.00743	1
98.01514	41
98.98101	4
99.02303	49
100.03073	14
101.0089	2
101.03852	5
102.04657	6
103.05425	1
105.99904	1
106.07787	42
106.51044	18
106.94508	2
107.08113	2
107.5088	5
107.97607	4
108.98389	12
109.0074	5
109.10123	11
109.99195	92
110.01521	13
110.49577	18
110.99051	61
111.02284	20
111.49204	13
111.98876	10
113.03854	9
114.04662	4
114.06754	1
114.97256	1
115.05434	27
115.9708	1
116.0576	4
116.06199	9
117.07008	14
118.07313	2
118.99777	1
119.08562	2
119.9996	3
120.9841	4
121.00736	4
122.01518	23
122.98112	1
123.02288	53
123.117	5
123.99493	5
124.03089	27
125.03856	41
125.13252	1
126.03116	1
126.04634	19
127.05399	4
127.98034	28
128.06197	44
128.48181	3
128.97879	29
129.04486	7
129.0657	4
129.07007	51
129.97716	9
130.07353	6
130.07774	24
130.47878	2
131.08118	2
131.08562	31
132.08902	3
132.09338	9
132.98398	6
133.01358	2
133.10132	19
133.9917	4
134.10463	2
134.98106	2
134.99957	5
135.02316	4
136.00743	42
136.12463	1
137.01105	3
137.03862	6
138.00452	13
138.04628	3
139.05414	4
140.04947	1
141.06998	23
142.07754	28
143.0854	53
144.08873	5
144.09331	16
145.1011	428
145.96849	2
146.01491	4
146.10912	95
146.99939	11
147.02284	3
147.11665	26
147.96544	1
148.00748	5
148.03073	6
148.12451	7
148.99669	4
149.03868	118
150.00472	2
150.0466	578
150.04759	69
151.05437	324
152.05771	44
153.07005	10
155.06053	6
155.0854	9
156.09323	7
157.10124	28
158.10896	4
158.99933	13
159.11671	42
160.00751	35
160.12491	69
160.99683	5
161.01048	4
162.00461	12
163.0058	3
167.04912	4
167.08569	2
169.0649	25
169.1014	3
169.96869	8
170.06799	3
170.10904	4
171.11674	11
171.96559	6
172.00736	2
173.01488	2
173.13228	1
176.98544	1
177.04485	5
179.06014	76
180.06342	9
180.9603	1
181.96851	2
182.97658	3
183.11674	3
184.00711	32
184.97336	2
185.01523	42
185.13287	5
186.00485	12
186.02283	999
186.03781	4
187.01271	13
187.02637	121
188.02002	318
189.02376	42
190.02701	2
191.00079	1
193.96837	8
195.96529	4
195.98459	4
197.98097	3
199.14775	2
203.0255	5
206.9761	3
207.03209	11
207.10242	1
208.0312	2
213.02162	14
214.0246	2
215.01872	5
218.93456	2
219.98413	40
220.99213	23
221.98158	26
222.0002	3
222.98895	15
223.9785	4
223.99739	2
244.21887	4
255.2102	2
255.95471	5
255.9613	501
255.98546	1
256.96429	62
257.95087	3
257.95755	499
257.9642	3
257.97415	1
258.96115	60
259.95477	159
260.95877	20
261.95252	18
262.95526	1
270.23407	13
303.70941	2
