Mass spectrum: D4-Ph; GC-EI-FT; MS; Positive
Name: D4-Ph
Name: 2,2,4,4,6,6,8-heptamethyl-8-phenyl-1,3,5,7,2,4,6,8-tetraoxatetrasilocane
Class: Non-Natural Product; Siloxane
Formula: C13H26O4Si4
Exact mass: 358.09082
SMILES: C[Si]1(O[Si](O[Si](O[Si](O1)(C)C)(C)C2=CC=CC=C2)(C)C)C
InChI: InChI=1S/C13H26O4Si4/c1-18(2)14-19(3,4)16-21(7,17-20(5,6)15-18)13-11-9-8-10-12-13/h8-12H,1-7H3
Instrument: Thermo Scientific Q Exactive GC Hybrid Quadrupol-Orbitrap
Instrument type: GC-EI-FT
Ms type: MS
Ion mode: POSITIVE
Base peak: 253.0164
m/z	relative intensity
65.03856	6
75.02607	21
77.03856	12
79.05421	33
87.94314	4
91.0542	153
102.96661	31
105.0699	14
111.98853	3
118.99789	41
120.97717	13
123.02603	8
126.00415	7
127.01193	83
130.99789	1
133.01349	95
134.52368	11
136.01724	18
137.04169	12
143.52893	6
145.04674	6
148.93526	9
149.04166	12
151.02405	29
153.0033	4
157.01343	1
162.9696	57
164.94891	26
166.99779	7
175.97742	10
176.98524	54
177.99309	22
178.99773	24
181.01338	44
182.013	8
186.9696	5
188.98524	5
191.00084	86
192.9801	163
193.97971	34
194.97702	19
196.02858	22
199.024	8
206.02438	4
209.01144	48
210.99072	23
211.99023	4
213.0396	27
224.98526	21
227.05525	8
237.99307	13
240.98018	12
242.99591	1
253.01642	999
255.01329	117
265.01675	1
266.02444	9
269.04779	845
270.04733	201
287.05829	164
