Mass spectrum: PCB-52; GC-EI-FT; MS; Positive
Name: PCB-52
Name: 2,2',5,5'-Tetrachlorobiphenyl
Class: Non-Natural Product; PCB
Formula: C12H6Cl4
Exact mass: 289.92236
SMILES: C1=CC(=C(C=C1Cl)C2=C(C=CC(=C2)Cl)Cl)Cl
InChI: InChI=1S/C12H6Cl4/c13-7-1-3-11(15)9(5-7)10-6-8(14)2-4-12(10)16/h1-6H
Instrument: Thermo Scientific Q Exactive GC Hybrid Quadrupol-Orbitrap
Instrument type: GC-EI-FT
Ms type: MS
Ion mode: POSITIVE
Retention time: 13.23171
Base peak: 150.0466
m/z	relative intensity
50.55123	3
51.02296	5
53.03861	3
54.03389	7
54.04647	3
54.99462	10
55.01794	1
55.05431	29
55.49464	7
57.03354	3
57.06988	56
58.0047	6
61.00737	5
62.01518	10
63.023	6
65.03865	5
66.02403	5
67.03191	12
67.05433	14
68.02576	1
68.03977	5
68.06206	2
69.06988	16
70.06513	3
70.07777	5
71.08559	10
72.47992	7
72.98392	13
73.00733	1
73.02846	3
73.0469	2
74.01519	81
74.51909	9
75.02296	121
75.5247	4
75.99396	9
77.00533	2
77.03854	41
77.99103	5
78.99573	7
79.02739	21
79.04172	1
79.05418	42
79.53125	7
80.00346	4
80.03536	10
80.0621	4
80.54136	4
81.04318	25
81.06999	31
82.06509	3
82.07768	6
83.04921	1
83.08557	3
83.97612	6
83.99946	7
84.04457	2
84.08898	2
84.09335	3
84.98396	11
85.00732	24
85.02835	5
85.1012	12
86.01518	39
86.09638	1
87.02306	32
88.99747	3
90.04641	3
91.02309	6
91.05434	28
91.49964	4
92.00341	134
92.03087	3
92.06216	9
92.50514	19
93.00208	40
93.03865	4
94.04131	10
94.06525	4
94.0777	3
95.08556	24
95.97627	5
96.0889	4
96.09351	4
96.98413	28
97.01589	11
97.10133	7
97.52205	11
98.02374	128
98.03624	2
98.98099	5
99.02323	55
99.11695	4
100.03062	15
101.00889	5
102.04653	2
103.0416	1
103.05428	6
104.06211	6
105.03367	12
105.04471	3
106.04211	28
106.07314	8
106.51044	2
107.0497	37
107.08562	26
107.50909	8
107.97607	16
108.05706	1
108.08875	2
108.09329	5
108.98391	38
109.00745	14
109.10126	22
109.98266	20
109.99196	289
110.01518	23
110.49358	26
110.99051	152
111.02312	36
111.11674	2
111.49208	16
111.98875	30
112.49064	3
113.03851	3
113.52905	5
114.06786	2
115.00409	11
115.05432	23
116.06203	4
116.50886	11
117.01063	7
117.07008	36
118.00906	4
118.06516	2
118.07754	3
118.99812	5
119.0856	46
119.9996	12
120.05336	4
120.08889	3
120.09351	8
120.98423	3
121.00733	10
121.02846	9
121.03988	2
121.0649	4
122.01521	66
123.02287	133
123.11703	5
123.49102	12
124.01567	5
124.03088	57
124.48954	2
125.03858	24
126.03116	1
126.9723	118
127.47636	32
127.97102	119
128.00752	3
128.06197	20
128.47478	40
128.96939	38
129.07002	19
129.47316	10
130.03322	5
130.0735	4
130.07773	9
131.04091	15
131.08563	74
131.97614	5
132.08904	8
132.94199	3
132.9926	24
133.0136	8
133.10133	42
133.99081	22
134.06407	15
134.10906	12
134.49512	2
134.9895	17
134.98991	7
135.02275	9
135.07213	5
135.1167	25
135.49342	7
135.98868	7
136.0074	2
136.99684	5
137.03859	10
137.0713	1
137.13246	6
138.14034	1
139.05421	2
141.06995	8
142.07754	10
143.00777	5
143.02647	6
143.08537	18
144.03435	2
144.08075	8
144.09328	8
144.96054	96
144.98392	11
145.10112	49
145.46246	10
145.95904	93
146.01537	23
146.05983	10
146.10437	5
146.46092	5
146.95784	48
146.99982	25
147.02284	47
147.04388	1
147.05536	3
147.11664	25
147.45961	6
147.95627	9
148.03068	67
149.01621	1
149.02304	266
149.03865	302
149.05673	3
149.13245	12
150.0269	103
150.0466	999
150.47911	5
151.02397	12
151.04987	118
151.14806	1
151.47771	3
151.97928	23
152.06212	8
152.97758	8
153.07004	3
154.01404	2
154.07767	2
155.06052	3
156.02982	5
156.09317	2
156.98399	6
157.10121	6
157.99165	11
158.07268	2
158.9994	41
159.11674	25
160.00751	29
160.08853	2
160.12489	6
160.9967	11
161.07902	48
162.00462	9
163.0058	9
163.14839	9
165.06981	2
167.0493	6
168.02556	8
168.9605	5
168.98819	2
169.033	20
169.10155	3
169.9687	37
171.11693	4
171.96565	16
173.13228	24
174.13602	5
177.0448	19
177.16374	1
177.99495	9
179.08968	8
180.96094	3
181.10147	1
182.95796	3
182.99982	27
184.00775	313
184.99631	10
185.01521	227
185.13277	4
186.0045	102
186.01874	33
187.0126	62
187.14792	26
188.01584	8
188.15566	8
189.16396	31
190.16696	11
192.00063	2
192.96089	1
193.05012	2
193.96826	27
195.0441	22
195.9655	20
196.04796	30
197.03648	3
197.05579	9
198.0632	6
199.05284	9
201.16377	9
203.0255	26
203.17932	5
204.00188	3
204.0291	3
205.92696	6
205.99913	1
207.03209	26
208.03104	2
213.02154	85
214.02458	5
215.01868	27
216.02139	3
217.96849	9
218.97638	15
219.98407	963
220.97325	11
220.98738	101
221.08435	1
221.98158	647
222.98427	82
223.09692	9
223.97853	94
224.05856	6
224.98119	10
225.04286	19
225.06184	10
227.17954	2
229.19516	41
230.00824	5
230.19838	7
231.02083	25
231.2111	8
232.02464	50
233.01816	20
234.02154	15
235.01506	2
242.27843	3
246.98271	4
253.94594	18
254.95335	287
255.94304	17
255.9558	35
256.94995	267
257.22632	42
257.95306	33
258.23013	8
258.94775	90
259.95017	10
260.94385	9
265.99081	10
266.98996	10
266.99347	55
267.98801	4
268.99014	71
269.98486	7
270.98773	20
272.25009	16
273.2522	5
289.92206	621
290.92483	77
291.91931	787
292.92306	103
293.91577	390
294.91879	50
295.91351	76
296.91574	11
297.90948	4
299.95517	5
300.95874	14
301.96161	14
303.70938	2
303.95956	55
304.95322	13
305.95602	25
306.94922	9
309.95105	5
