Mass spectrum: DHP; GC-EI-FT; MS; Positive
Name: DHP
Name: Dihexyl phthalate
Class: Non-Natural Product; Phthalate
Formula: C20H30O4
Exact mass: 334.21441
SMILES: CCCCCCOC(=O)C1=CC=CC=C1C(=O)OCCCCCC
InChI: InChI=1S/C20H30O4/c1-3-5-7-11-15-23-19(21)17-13-9-10-14-18(17)20(22)24-16-12-8-6-4-2/h9-10,13-14H,3-8,11-12,15-16H2,1-2H3
Instrument: Thermo Scientific Q Exactive GC Hybrid Quadrupol-Orbitrap
Instrument type: GC-EI-FT
Ms type: MS
Ion mode: POSITIVE
Base peak: 149.0235
m/z	relative intensity
55.05425	4
65.03853	6
70.0778	1
71.08566	2
76.03085	8
77.03863	4
79.0543	2
93.03356	4
104.02589	15
105.03367	18
106.03709	1
121.02837	33
122.03648	11
123.04413	9
135.04416	2
148.01547	1
148.98833	1
149.02348	999
149.05618	2
150.02676	86
151.0274	7
167.03406	2
174.10384	1
176.04718	1
219.10158	8
220.10466	1
237.11249	13
238.1152	2
