Mass spectrum: D3-Ph2; GC-EI-FT; MS; Positive
Name: D3-Ph2
Name: Diphenyltetramethylcyclotrisiloxane
Class: Non-Natural Product; Siloxane
Formula: C16H22O3Si3
Exact mass: 346.08767
SMILES: C[Si]1(O[Si](O[Si](O1)(C2=CC=CC=C2)C3=CC=CC=C3)(C)C)C
InChI: InChI=1S/C16H22O3Si3/c1-20(2)17-21(3,4)19-22(18-20,15-11-7-5-8-12-15)16-13-9-6-10-14-16/h5-14H,1-4H3
Instrument: Thermo Scientific Q Exactive GC Hybrid Quadrupol-Orbitrap
Instrument type: GC-EI-FT
Ms type: MS
Ion mode: POSITIVE
Base peak: 253.0165
m/z	relative intensity
65.03857	3
75.02606	3
78.04641	4
91.05421	76
105.06992	8
118.99636	25
126.50805	6
128.00159	14
133.01353	13
137.04169	6
146.93837	37
149.01448	17
151.02403	3
158.01971	37
162.96962	7
164.94891	12
167.02498	12
174.03279	2
176.98526	11
178.96454	9
181.01341	33
191.0009	4
192.9801	144
193.97977	26
195.02908	43
197.04156	7
209.04471	38
210.99074	18
213.03964	10
222.96959	53
227.05527	8
236.98534	6
240.98022	16
253.0165	999
254.01613	238
256.01303	21
266.02438	2
271.02716	103
299.00073	1
313.01657	4
328.03973	1
331.06329	142
346.08676	5
349.07394	14
