Mass spectrum: Dinonyl phthalate; GC-EI-FT; MS; Positive
Name: Dinonyl phthalate
Name: dinonyl benzene-1,2-dicarboxylate
Class: Non-Natural Product; Phthalate
Formula: C26H42O4
Exact mass: 418.30831
SMILES: CCCCCCCCCOC(=O)C1=CC=CC=C1C(=O)OCCCCCCCCC
InChI: InChI=1S/C26H42O4/c1-3-5-7-9-11-13-17-21-29-25(27)23-19-15-16-20-24(23)26(28)30-22-18-14-12-10-8-6-4-2/h15-16,19-20H,3-14,17-18,21-22H2,1-2H3
Instrument: Thermo Scientific Q Exactive GC Hybrid Quadrupol-Orbitrap
Instrument type: GC-EI-FT
Ms type: MS
Ion mode: POSITIVE
Base peak: 149.02344
m/z	relative intensity
105.03365	6
121.02855	10
122.03618	5
123.04401	6
149.02344	999
150.02673	88
150.03107	7
151.03012	2
167.03389	12
176.04677	3
275.16437	6
293.17484	28
294.1781	5
