Mass spectrum: 6:2 FTI; GC-EI-FT; MS; Positive
Name: 6:2 FTI
Name: 1H,1H,2H,2H-Perfluorohexyl iodide
Class: Non-Natural Product
Formula: C6H4F9I
Exact mass: 373.92140
SMILES: C(CI)C(C(C(C(F)(F)F)(F)F)(F)F)(F)F
InChI: InChI=1S/C6H4F9I/c7-3(8,1-2-16)4(9,10)5(11,12)6(13,14)15/h1-2H2
Instrument: Thermo Scientific Q Exactive GC Hybrid Quadrupol-Orbitrap
Instrument type: GC-EI-FT
Ms type: MS
Ion mode: POSITIVE
Base peak: 140.9195
m/z	relative intensity
51.0041	105
52.00749	3
56.00571	2
57.01353	28
59.02918	28
64.01193	11
65.01971	193
66.02312	6
66.99901	1
68.98414	2
68.99465	746
69.01351	3
69.99806	9
70.02137	1
73.99627	3
74.98773	2
75.0041	65
76.01195	9
77.00732	2
77.01973	836
77.0386	2
78.02312	60
79.03541	11
80.9947	1
81.01357	1
82.00251	4
83.01033	12
87.00413	1
88.01195	19
89.01974	94
90.02763	11
92.0621	2
92.99473	55
93.01473	9
93.99808	3
95.01032	165
96.01372	6
96.98966	46
97.02607	4
99.00417	4
99.99308	153
101.00098	8
101.01983	8
106.00253	5
107.01037	16
108.01815	78
109.02599	107
110.02939	5
111.00526	2
111.99311	11
113.00086	173
114.0043	5
115.01656	102
116.01994	3
116.99583	15
118.99146	307
119.01035	50
119.99486	6
120.0182	8
121.026	1
123.99313	5
125.00093	5
125.02087	1
126.00874	14
126.90389	563
127.01653	94
127.91171	466
128.01993	5
128.91959	10
130.99144	528
131.99486	19
133.00714	23
137.00092	31
138.00873	6
138.90398	8
139.01652	70
139.91176	13
140.01985	6
140.9195	999
140.95078	1
141.92297	13
142.9915	7
143.01146	3
143.99933	3
145.00705	154
146.01048	6
146.98639	1
147.02277	3
149.98987	4
150.0087	5
150.99773	2
151.01657	3
151.91174	5
152.91957	19
153.92735	41
154.9351	505
155.93855	12
157.0071	44
158.01494	12
158.91011	71
159.02274	5
159.91795	1
161.98984	6
162.99764	78
164.00101	3
165.01331	5
167.99925	4
168.98822	54
169.00706	51
169.9915	1
170.0105	5
172.92578	11
174.99766	30
176.00104	3
176.90068	26
177.01331	25
180.98817	114
181.99156	4
182.9301	2
184.92577	9
185.93355	4
186.99765	16
188.00549	6
189.01329	21
190.91631	3
190.99258	4
192.98824	4
195.00389	42
196.00732	2
198.9977	6
202.91631	46
203.92416	4
204.93201	34
207.00389	69
208.00728	6
209.01952	2
212.99437	172
213.99782	9
215.92429	2
217.99608	4
218.98508	1
219.00392	51
220.00723	4
220.907	1
224.99449	8
227.0101	8
230.98511	27
231.98846	1
233.91481	3
236.99451	26
237.99782	2
238.89757	1
239.01016	10
240.98938	5
242.98517	43
243.98862	3
245.00076	11
257.00073	115
258.0043	9
262.99139	122
263.99481	8
274.99155	4
277.00702	58
278.01028	4
280.9819	102
281.98529	7
286.99139	19
287.99466	2
294.9975	3
306.99756	27
308.00534	6
309.00861	1
327.00348	271
328.00705	23
347.00986	4
473.91382	334
474.91748	29
