Mass spectrum: UV-326; GC-EI-FT; MS; Positive
Name: UV-326
Name: 2-(tert-Butyl)-6-(5-chloro-2H-benzo[d][1,2,3]triazol-2-yl)-4-methylphenol
Class: Non-Natural Product; Benzotriazole
Formula: C17H18ClN3O
Exact mass: 315.11384
SMILES: CC1=CC(=C(C(=C1)N2N=C3C=CC(=CC3=N2)Cl)O)C(C)(C)C
InChI: InChI=1S/C17H18ClN3O/c1-10-7-12(17(2,3)4)16(22)15(8-10)21-19-13-6-5-11(18)9-14(13)20-21/h5-9,22H,1-4H3
Instrument: Thermo Scientific Q Exactive GC Hybrid Quadrupol-Orbitrap
Instrument type: GC-EI-FT
Ms type: MS
Ion mode: POSITIVE
Base peak: 300.08972
m/z	relative intensity
117.0574	30
119.08554	615
120.08899	61
126.01059	103
128.00761	34
131.04924	46
133.06484	32
145.06484	88
145.10112	209
147.08052	139
147.11681	255
154.01668	109
156.0137	35
160.0757	59
161.0835	31
167.07295	31
180.08083	30
194.09642	31
203.17944	140
272.05866	248
274.05579	78
300.08972	999
301.09335	172
302.08691	315
303.09042	55
315.11334	353
316.11688	63
317.11032	113
335.27335	346
336.27673	92
