Mass spectrum: PBDE-17; GC-EI-FT; MS; Positive; CE: 35
Name: PBDE-17
Name: 2,2,4-Tribromodiphenyl ether
Class: Non-Natural Product; Brominated Flame Retardant
Formula: C12H7Br3O
Exact mass: 403.8047
SMILES: C1=CC=C(C(=C1)OC2=C(C=C(C=C2)Br)Br)Br
InChI: InChI=1S/C12H7Br3O/c13-8-5-6-12(10(15)7-8)16-11-4-2-1-3-9(11)14/h1-7H
Instrument: Trace 1310 GC, Thermo Scientific; Q Exactive Orbitrap, Thermo Scientific
Instrument type: GC-EI-FT
Ms type: MS
Ion mode: POSITIVE
Collision energy: 35 eV
Retention time: 18.89378
Base peak: 139.0544
m/z	relative intensity
100.03087	1
103.05443	2
104.0623	2
106.04141	2
107.99945	2
109.00731	8
109.48131	4
110.01538	13
111.02304	20
112.03089	10
113.03873	71
114.04649	14
114.06774	2
115.05421	4
115.92578	3
116.93349	28
117.06996	4
117.92369	4
118.07333	1
118.93147	29
119.08548	1
122.01507	1
122.98356	104
123.48506	11
123.98257	96
124.48422	14
126.04652	1
127.05434	2
127.92581	5
128.0622	5
128.93341	8
129.06992	2
129.92375	6
130.07761	3
130.93141	8
131.08546	1
131.9996	1
133.01343	4
133.06493	1
134.01529	1
137.03845	97
138.04656	144
139.0544	999
140.05777	126
140.9337	17
141.06981	8
141.94116	18
142.93152	17
142.94937	55
143.93921	20
143.95262	2
144.94725	56
145.10138	2
145.95035	3
146.07253	3
146.93852	1
147.08058	2
152.9333	19
153.94113	36
154.93143	18
154.94897	26
155.0858	1
155.93926	36
156.09357	2
156.94696	24
157.06458	1
161.93869	2
162.93311	5
162.96988	2
164.44089	3
166.0414	17
167.04892	32
168.05699	126
168.08125	2
168.98807	2
169.06062	15
169.93639	35
170.84422	6
170.93954	4
171.93399	36
171.95184	6
172.08839	1
172.84212	12
172.94211	4
173.94997	5
174.83958	6
178.07768	2
182.95518	38
184.12491	1
184.95305	37
185.0961	2
190.94899	4
191.0013	5
191.957	3
192.94714	4
192.96492	5
192.98024	3
193.05006	2
193.95509	4
194.84412	5
194.96298	6
195.05498	73
196.05894	10
196.84193	10
198.84033	5
207.1023	2
216.96497	46
217.97348	10
218.96225	45
219.965	8
220.85951	70
221.86351	3
222.85738	134
223.86054	7
224.85529	65
225.85938	4
245.96715	985
246.96808	13
246.97119	132
247.96567	963
248.8544	13
248.96838	130
249.86264	3
249.97234	7
250.85232	27
251.86136	6
252.8503	14
253.85788	3
260.86584	4
262.86374	8
264.86139	4
272.87326	3
281.05148	2
296.89117	5
298.88882	12
300.88733	6
323.8786	12
325.87543	24
325.89383	14
326.88007	4
327.8739	11
327.89099	25
328.89551	3
329.89014	13
341.01858	1
403.80325	160
404.80667	20
405.80292	467
406.80518	60
407.79993	451
408.80292	62
409.79822	153
410.80197	20
554.57086	2
