Mass spectrum: 2,4,6-Tribromoanisole; GC-EI-FT; MS; Positive; CE: 35
Name: 2,4,6-Tribromoanisole
Name: Tribromoanisole
Class: Natural Product; Metabolite
Formula: C7H5Br3O
Exact mass: 341.7891
SMILES: COC1=C(C=C(C=C1Br)Br)Br
InChI: InChI=1S/C7H5Br3O/c1-11-7-5(9)2-4(8)3-6(7)10/h2-3H,1H3
Instrument: Trace 1310 GC, Thermo Scientific; Q Exactive Orbitrap, Thermo Scientific
Instrument type: GC-EI-FT
Ms type: MS
Ion mode: POSITIVE
Collision energy: 35 eV
Retention time: 8.9
Base peak: 328.7627
m/z	relative intensity
102.9668	4
103.92566	5
105.03366	1
105.92368	5
107.0855	2
108.08079	1
109.06502	3
109.92561	10
110.92485	18
111.023	2
111.92377	8
113.0387	2
114.9179	13
115.03894	1
115.0542	2
115.92577	32
116.06222	4
116.9158	13
116.9334	11
117.06996	5
117.92366	39
118.93147	15
120.08098	1
123.11689	2
123.92329	13
124.9222	25
125.42383	2
125.92099	14
127.05438	2
127.92575	14
128.93343	5
129.06988	3
129.92366	18
130.07796	2
130.91283	5
130.93132	4
131.04921	2
131.08545	5
132.91068	6
133.01344	5
133.0649	1
133.10118	1
134.10898	1
135.0625	3
137.13275	1
138.91809	9
139.92575	67
140.91568	8
140.93361	563
141.92345	68
141.93704	30
142.07787	2
142.93144	563
143.08569	5
143.93498	25
144.09364	1
145.04701	1
145.10142	3
146.07246	1
146.09662	2
146.10895	2
146.93848	4
147.11697	3
149.3848	4
150.3839	12
151.38258	10
151.9258	19
152.38159	4
152.93329	104
153.92363	21
153.94109	84
154.93147	108
154.94438	9
155.93922	80
155.95698	21
156.94688	9
157.93608	4
157.9547	23
158.94434	3
159.83423	7
160.95386	2
162.96991	4
168.9286	8
168.98795	2
169.10126	2
169.93639	5
170.0964	1
170.1089	2
170.84418	17
170.9263	6
171.8342	4
171.93391	5
171.95152	3
172.842	32
173.13263	1
173.83165	3
174.14018	1
174.83969	15
175.14783	2
176.98531	3
182.10878	1
182.94388	6
182.95517	6
184.94215	5
184.95311	5
189.06956	1
189.1638	1
191.00137	4
192.98026	3
193.05003	8
193.83623	3
194.84387	56
195.8343	9
196.84203	118
197.8456	3
198.83952	57
202.07777	2
203.08516	2
205.01636	1
207.10225	7
208.07254	2
209.08061	1
218.84406	22
219.8519	57
220.84189	39
220.85953	9
221.13278	1
221.85017	118
222.83962	18
222.85768	16
223.84804	59
224.85527	6
227.17944	1
231.85193	20
232.85945	6
233.84956	39
233.86678	3
234.85785	12
235.84764	20
235.86517	7
236.8549	6
236.87349	2
237.8627	3
247.84631	103
248.85033	4
248.98822	1
249.84459	202
250.84796	11
251.84247	99
252.85034	5
260.86581	34
262.86368	73
263.86035	8
263.87775	11
264.86154	41
265.85794	3
265.87701	17
266.86584	6
267.06833	1
267.8736	8
274.75287	2
281.05151	3
298.76971	202
299.7727	9
300.76825	598
301.77164	30
302.76578	597
303.76914	32
304.76471	198
305.76773	11
314.76553	2
326.76434	336
327.76846	23
328.76267	999
329.76627	58
330.76163	987
331.76465	57
332.75937	325
333.76154	20
338.7753	3
340.77328	9
341.78876	316
342.77328	9
342.79132	20
343.78644	912
344.77032	3
344.78928	68
345.78442	876
346.78738	66
347.7825	293
348.78549	21
475.14322	2
476.14255	2
