Mass spectrum: Pentabromobenzene; GC-EI-FT; MS; Positive
Name: Pentabromobenzene
Name: 1,2,3,4,5-pentabromobenzene
Class: Non-Natural Product; Brominated flame retardant
Formula: C6HBr5
Exact mass: 467.59951
SMILES: C1=C(C(=C(C(=C1Br)Br)Br)Br)Br
InChI: InChI=1S/C6HBr5/c7-2-1-3(8)5(10)6(11)4(2)9/h1H
Instrument: Thermo Scientific Q Exactive GC Hybrid Quadrupol-Orbitrap
Instrument type: GC-EI-FT
Ms type: MS
Ion mode: POSITIVE
Base peak: 151.92532
m/z	relative intensity
53.03861	2
55.05434	7
61.00739	6
61.0285	1
62.01513	8
63.02295	12
66.02406	7
67.05421	3
69.03355	1
70.04141	1
71.0856	1
73.00741	273
73.02851	2
74.01508	34
78.0242	5
78.0464	2
78.91786	27
79.92566	14
80.91577	19
80.93359	8
81.92355	15
82.93136	5
87.04414	2
89.03861	1
90.01015	12
90.91799	5
91.92118	2
92.91588	4
96.05698	1
100.00563	16
101.01372	5
103.05444	4
104.06203	2
105.03362	1
105.9325	6
106.02591	2
106.0265	1
107.03348	1
107.04923	1
107.08553	2
109.06484	1
114.91786	17
115.05424	3
115.4217	17
115.9259	16
116.42078	31
116.91581	16
117.41986	17
117.92783	26
118.07783	3
118.4318	3
118.93572	6
119.43077	5
120.42996	5
120.93374	1
126.91811	12
127.92584	30
128.91582	10
129.06993	2
129.92375	35
130.93135	5
131.93903	3
132.92915	5
135.11699	2
138.14023	2
139.92581	4
141.92395	5
143.1064	1
143.93457	2
145.0649	2
147.08064	1
150.91789	56
151.92532	999
152.06204	2
152.92876	109
153.92368	954
154.88088	30
154.9269	69
155.87976	96
155.9346	4
156.38129	8
156.87892	106
156.93642	9
156.93799	11
157.38039	3
157.83608	1
157.89087	30
157.94571	2
158.10887	5
158.38879	2
158.89011	146
158.93581	9
159.83421	3
159.88908	12
161.83205	5
165.88425	4
166.07361	2
167.89519	2
169.89307	2
176.98537	1
178.92381	3
180.92169	7
181.8361	7
183.83424	15
184.08807	1
184.9962	2
185.84108	6
186.99403	2
187.83881	2
191.00078	3
191.08575	1
193.8363	4
194.33986	6
194.83518	4
195.11717	2
195.33888	21
195.83446	13
196.33768	33
196.83249	6
197.33658	17
197.83224	5
198.34926	14
198.84413	2
199.14847	2
199.34772	6
199.85243	5
201.34598	1
205.83585	24
207.83368	45
209.83237	25
212.0827	2
213.84567	3
222.85742	4
227.87488	3
229.83608	34
230.84366	138
231.83411	79
232.84244	251
233.79971	7
233.83241	50
234.79776	45
234.84022	125
235.29958	3
235.79724	76
236.29843	4
236.7963	64
236.86383	3
237.80866	23
238.30641	3
238.80769	12
239.30463	2
239.80609	5
309.76239	58
310.75235	5
311.76028	167
312.76404	13
313.75806	169
314.76105	8
314.77914	3
315.75549	48
315.78256	2
316.77383	1
316.77686	4
327.75412	1
329.75357	4
329.77124	4
340.77371	4
342.77274	4
388.68161	3
390.67944	18
391.68655	11
392.67676	26
393.68323	14
394.67413	17
395.68176	6
396.69925	6
400.694	10
416.68744	14
418.68466	64
419.68872	3
420.68268	98
421.68463	4
422.681	59
422.70587	4
424.68118	17
424.70535	10
425.70053	2
428.69998	2
467.59992	43
469.59793	225
470.59878	11
471.59503	418
472.59729	20
473.59378	382
474.5964	18
475.59122	198
476.60873	10
476.61151	3
477.60443	40
478.60889	6
479.61346	21
483.60971	2
