Mass spectrum: PCB-105; GC-EI-FT; MS; Positive
Name: PCB-105
Name: 2,3,3',4,4'-Pentachlorobiphenyl
Class: Non-Natural Product; PCB
Formula: C12H5Cl5
Exact mass: 323.88339
SMILES: C1=CC(=C(C=C1C2=C(C(=C(C=C2)Cl)Cl)Cl)Cl)Cl
InChI: InChI=1S/C12H5Cl5/c13-8-3-1-6(5-10(8)15)7-2-4-9(14)12(17)11(7)16/h1-5H
Instrument: Trace 1310 GC, Thermo Scientific; Q Exactive Orbitrap, Thermo Scientific
Instrument type: GC-EI-FT
Ms type: MS
Ion mode: POSITIVE
Retention time: 18.39621
Base peak: 325.8797
m/z	relative intensity
51.02295	4
52.01825	2
52.03084	2
53.0386	6
54.01013	2
54.03388	4
54.04647	6
55.0417	1
55.0543	4
56.0257	1
56.06205	42
57.03354	3
59.0492	3
60.0207	5
61.00732	12
61.5112	1
62.01518	5
63.48485	7
63.96141	5
67.00734	3
68.06206	1
70.04137	2
70.07773	3
72.98409	6
73.00732	24
73.02843	2
73.51128	13
74.01516	64
74.51908	2
75.02295	28
75.99413	3
76.03075	1
77.03852	9
78.04649	2
78.99573	3
80.969	3
81.03357	8
81.46809	8
81.96743	7
82.04138	2
83.04919	4
83.97614	27
83.99946	13
84.4781	3
84.98396	14
85.00729	36
85.97324	8
86.01518	28
87.02306	19
87.98957	1
90.99559	9
91.49964	12
92.00336	130
92.50511	21
93.00203	39
93.05741	3
94.06523	4
94.07772	3
95.97626	8
96.00428	4
96.05704	3
96.98407	18
97.00742	22
98.01511	108
98.07269	5
98.98098	6
99.02325	66
100.02666	6
102.00086	3
102.04653	3
105.07008	3
106.04208	8
106.07782	2
106.94507	13
107.97609	37
107.99954	7
108.06824	1
108.94208	9
108.98417	162
109.00739	25
109.48571	21
109.98261	97
110.01512	29
110.07279	2
110.48422	14
110.98108	26
111.02307	20
111.05515	2
113.03851	3
113.05979	2
113.96462	8
113.99624	5
114.96296	7
115.05426	6
116.00261	10
117.02962	1
117.07002	4
117.93755	3
117.98911	8
118.07787	5
118.98139	3
118.99811	2
119.08556	1
119.97984	9
119.99956	18
120.05331	2
120.942	6
120.98413	14
121.0074	23
121.06482	3
122.01513	88
122.10927	4
122.98112	5
123.02281	97
123.49106	15
124.00937	3
124.03086	17
124.08834	3
124.48954	9
125.96474	10
126.46853	9
126.97225	331
126.99954	10
127.05448	6
127.474	44
127.97094	332
128.00755	4
128.47237	43
128.96932	113
129.47118	12
129.51106	4
129.96794	11
130.06549	3
130.07767	4
130.94514	6
131.04929	4
131.07271	1
131.95294	4
131.97614	26
132.04855	5
132.08077	3
132.09338	3
132.49109	2
132.94199	8
132.99254	54
133.01352	12
133.10127	6
133.4895	18
133.97337	6
134.01541	4
134.98944	4
135.02315	7
135.08046	1
135.11702	3
135.47395	3
135.96187	2
135.98807	5
136.0883	2
136.11217	1
137.03857	17
137.07088	1
139.05409	3
140.47159	5
141.47003	6
141.49397	4
142.0779	2
142.94492	10
143.03622	3
143.07295	2
143.08578	1
143.9527	84
143.97638	8
143.99956	10
144.04408	3
144.05708	1
144.45698	38
144.95152	100
144.98379	16
145.05241	5
145.07625	1
145.4555	57
145.94995	54
145.96844	5
146.01523	58
146.4539	30
146.49184	4
146.93852	8
146.93901	9
146.98122	6
146.99982	21
147.02277	100
147.11696	1
148.03061	142
148.06305	2
148.96497	2
148.99667	8
149.02347	4
149.0386	272
149.0963	1
150.04208	45
150.477	51
150.97156	6
151.05435	3
151.97009	2
152.96846	6
154.94505	3
155.06041	2
155.91064	3
155.97597	8
156.0806	4
156.09316	3
156.98386	21
157.10114	1
157.99159	34
158.96654	4
158.98106	5
158.99989	17
159.9885	11
160.00751	6
160.07106	22
160.95401	2
160.99675	5
161.94095	48
162.08667	3
162.44264	8
162.93983	90
163.00578	9
163.44121	9
163.93839	52
164.43983	6
164.93663	16
164.98556	2
167.01782	5
167.0491	6
167.96115	21
168.45831	2
168.98819	3
169.95842	29
169.96854	47
170.10906	2
170.95702	11
170.99963	6
171.96558	25
172.96663	3
173.13278	1
176.06216	1
176.98732	2
177.04483	10
179.00096	2
179.92934	6
180.96088	11
180.98837	1
181.10146	1
181.92635	5
181.96849	6
181.99176	43
182.03635	1
182.95796	6
182.99971	131
183.98914	14
184.00761	706
184.99689	43
185.01106	97
185.09627	1
186.00435	238
187.00772	31
187.94667	2
189.16392	1
189.99115	8
191.95279	7
192.00061	3
192.96089	14
192.9803	4
192.99829	2
193.05011	3
193.96796	27
194.03201	3
194.95787	10
195.0397	9
195.96535	12
197.03722	1
201.00987	7
203.92975	33
205.92682	39
205.99919	2
207.03197	15
207.92381	9
208.03113	2
210.02905	1
215.95068	1
216.96078	9
217.96838	157
218.95801	6
218.9763	103
219.96553	95
219.97966	19
220.97339	64
221.96315	14
222.97084	8
227.92921	12
229.00586	1
229.92682	11
230.00899	8
232.02458	1
233.01407	2
235.01022	3
237.96321	3
246.98247	35
248.97987	20
249.02744	3
251.92935	6
252.93779	9
253.94565	478
254.93471	10
254.94882	59
255.94249	454
256.94534	51
257.93961	144
258.94287	14
259.93646	15
263.96967	4
266.9798	11
266.99884	3
267.98288	7
269.97992	7
271.97668	4
287.90714	19
288.91385	11
289.90347	21
289.92197	10
290.91138	14
291.90039	12
291.91962	14
292.90817	9
293.91562	5
294.90506	2
301.94269	3
301.96146	2
303.94101	2
303.95984	5
323.88251	639
324.88596	67
324.98657	2
325.87967	999
326.88287	122
327.87637	660
328.8808	82
329.87372	205
330.87747	27
331.87128	31
334.91971	5
336.91714	18
338.91385	5
339.91727	1
340.91034	2
341.91379	4
