Mass spectrum: Allyl-2,4,6-tribromophenyl ether; GC-EI-FT; MS; Positive
Name: Allyl-2,4,6-tribromophenyl ether
Name: 1,3,5-tribromo-2-prop-2-enoxybenzene
Class: Non-Natural Product; Brominated flame retardant
Formula: C9H7Br3O
Exact mass: 367.80470
SMILES: C=CCOC1=C(C=C(C=C1Br)Br)Br
InChI: InChI=1S/C9H7Br3O/c1-2-3-13-9-7(11)4-6(10)5-8(9)12/h2,4-5H,1,3H2
Instrument: Thermo Scientific Q Exactive GC Hybrid Quadrupol-Orbitrap
Instrument type: GC-EI-FT
Ms type: MS
Ion mode: POSITIVE
Base peak: 118.07784
m/z	relative intensity
51.023	8
53.00225	6
53.03862	3
54.04649	4
55.01792	5
55.05431	12
56.06208	7
57.06989	3
61.00737	43
62.0152	222
63.02292	57
64.03081	3
65.03855	4
66.04655	2
69.03355	2
71.04912	2
73.0074	6
73.0469	6
74.01523	146
75.02302	104
76.03083	43
77.03858	96
78.04639	12
78.91788	18
79.05424	1
79.92563	19
80.91573	16
81.03365	2
81.92375	19
82.04144	1
83.04927	2
86.03628	1
87.02296	6
88.03088	5
88.05194	3
89.00232	2
89.03859	8
90.01012	31
91.01786	12
92.06206	5
94.07791	2
97.06484	1
98.03643	1
99.02293	4
100.03087	6
101.03869	13
102.04646	136
103.05442	164
104.06229	20
105.04491	6
106.07774	2
108.09348	3
109.06502	1
111.04408	2
111.11694	1
113.03872	5
114.04651	3
114.91789	7
115.92578	48
116.06222	2
116.9158	6
116.93343	46
117.92374	49
118.07784	3
118.93149	47
120.94726	2
125.09621	1
127.05438	1
127.07548	2
127.92576	14
128.93356	11
129.04474	27
129.0699	41
129.92375	14
130.04144	31
130.07759	2
130.91287	9
130.93133	12
131.04922	361
132.05698	107
132.91061	8
133.01353	1
133.06041	3
135.06247	1
138.14031	3
139.07558	1
139.92578	65
140.93364	999
141.92348	133
141.9371	68
142.93147	978
142.94896	11
143.08476	1
143.08569	4
143.93503	62
144.05698	1
144.94724	9
147.06573	5
151.92584	19
152.0621	4
152.93332	124
153.92375	22
153.94113	68
154.93147	122
154.9491	9
155.93924	55
155.95709	13
156.92848	3
156.94748	9
157.93614	6
157.95476	14
158.94386	4
159.93466	6
160.94186	4
163.07553	1
163.11186	1
166.94942	10
167.08545	1
168.09329	2
168.92862	29
168.94679	12
169.93636	36
170.84425	23
170.92638	29
171.93391	33
172.84203	50
174.83972	21
179.95715	32
180.96462	21
181.95456	28
181.97228	29
182.94395	13
182.96233	32
183.97078	30
184.94223	14
186.12764	2
191.00073	5
191.08574	1
191.10631	1
192.98026	1
193.05	5
193.10115	2
194.8439	74
195.83368	5
195.9521	37
196.84209	147
197.83223	7
197.94945	40
198.83962	73
199.14845	1
207.10228	7
207.13756	6
207.95194	6
208.03087	14
208.95982	256
209.01175	13
209.02945	11
209.96773	927
210.9575	329
211.96503	897
212.83641	5
212.96889	87
218.84406	18
219.85187	91
220.84187	37
220.85973	35
221.08432	1
221.84935	187
222.83968	19
222.85744	73
223.84808	94
224.85542	33
231.2111	2
231.852	31
232.84238	6
233.84959	68
233.86783	6
234.85272	4
235.84778	29
235.86525	9
237.86377	3
246.87549	6
247.84636	82
248.84935	6
248.87328	14
248.98846	1
249.84462	157
250.84805	11
250.87151	7
251.84251	80
251.86073	9
252.85042	5
253.85898	4
260.86588	7
260.89075	10
261.86255	8
262.86356	13
262.88873	17
263.86014	10
264.86163	7
264.88705	7
265.85919	5
274.87042	16
275.86096	6
276.75082	4
276.86835	30
277.85864	4
278.86563	16
281.05154	5
286.87057	12
288.88236	36
288.88632	118
289.87573	10
290.88092	42
290.88358	226
291.88727	19
292.88141	109
293.88605	7
298.76971	130
299.7742	6
300.76828	366
301.77179	18
302.76581	348
303.76923	18
304.76465	113
305.76807	4
315.77347	1
326.7644	68
327.77353	48
328.76276	186
329.77145	141
330.76175	189
331.7684	134
332.75946	63
333.76694	42
340.79901	3
341.01858	1
342.7727	5
342.79825	5
367.80447	29
369.80188	91
370.80594	9
371.80029	90
372.80273	5
373.79748	25
461.0917	1
