Mass spectrum: Diethyl 1,4-cyclohexanedicarboxylate; GC-EI-FT; MS; Positive
Name: Diethyl 1,4-cyclohexanedicarboxylate
Name: Diethyl cyclohexane-1,4-dicarboxylate
Class: Non-Natural Product; Industrial Chemical
Formula: C12H20O4
Exact mass: 228.13616
SMILES: CCOC(=O)C1CCC(CC1)C(=O)OCC
InChI: InChI=1S/C12H20O4/c1-3-15-11(13)9-5-7-10(8-6-9)12(14)16-4-2/h9-10H,3-8H2,1-2H3
Instrument: Trace 1310 GC, Thermo Scientific; Q Exactive Orbitrap, Thermo Scientific
Instrument type: GC-EI-FT
Ms type: MS
Ion mode: POSITIVE
Retention time: 7.69
Base peak: 81.06995
m/z	relative intensity
53.03867	8
65.03865	8
67.05429	60
73.0285	24
79.05427	211
80.0621	476
81.06995	999
82.0733	69
85.06489	2
91.05432	6
97.06491	14
99.04414	4
107.04924	15
108.05701	245
109.06487	217
110.06826	21
112.05199	4
114.06766	6
123.04415	2
126.06765	63
135.04419	2
139.07546	6
153.0911	6
154.09885	716
155.10667	376
156.11011	35
182.09383	27
