Mass spectrum: trans-chlordane; GC-EI-FT; MS; Positive
Name: trans-chlordane
Name: (1R,2S,3R,4R,6S,7S)-1,3,4,7,8,9,10,10-octachlorotricyclo[5.2.1.02,6]dec-8-ene
Class: Non-Natural Product; Organochlorine
Formula: C10H6Cl8
Exact mass: 405.79777
SMILES: C1[C@H]2[C@@H]([C@H]([C@@H]1Cl)Cl)[C@]3(C(=C([C@@]2(C3(Cl)Cl)Cl)Cl)Cl)Cl
InChI: InChI=1S/C10H6Cl8/c11-3-1-2-4(5(3)12)9(16)7(14)6(13)8(2,15)10(9,17)18/h2-5H,1H2/t2-,3+,4-,5-,8-,9+/m0/s1
Instrument: Trace 1310 GC, Thermo Scientific; Q Exactive Orbitrap, Thermo Scientific
Instrument type: GC-EI-FT
Ms type: MS
Ion mode: POSITIVE
Retention time: 15.47536
Base peak: 372.8255
m/z	relative intensity
51.02292	8
53.03861	15
54.01003	3
54.03389	13
54.04648	13
55.01794	12
56.0257	4
56.06206	56
57.03357	8
57.06547	13
57.06987	114
58.04135	5
59.04924	6
61.00723	18
61.02848	2
62.01512	8
63.0229	10
64.96919	15
65.03853	193
66.0465	366
67.04166	20
67.05418	40
68.06207	6
68.99477	5
69.06988	3
70.07774	11
70.96832	15
71.01279	4
71.04922	2
71.06323	6
72.98394	68
74.01518	58
74.03622	5
74.98113	26
74.99961	123
75.02296	47
75.99414	5
76.99667	34
77.03854	21
78.04211	2
78.99574	15
79.04173	7
79.05418	18
80.00343	31
80.04954	5
80.06206	13
81.00206	7
81.03358	25
81.04472	10
81.06998	26
81.93717	13
82.05254	1
82.06511	10
82.07768	20
82.94511	132
82.96822	4
83.01285	1
83.04919	6
83.08556	15
83.97608	53
83.99947	1
84.05692	2
84.08092	4
84.09335	7
84.94217	92
84.98395	41
85.00732	56
85.06475	2
85.10118	13
86.01519	63
86.03618	6
86.98104	17
86.9996	31
87.02308	34
87.04421	8
88.0308	5
90.04645	11
91.05432	52
92.05766	5
92.06215	11
93.05745	2
94.04129	8
94.07777	1
94.9685	89
95.03655	7
95.06042	3
95.08556	26
95.97628	48
96.00404	2
96.96532	29
96.98409	112
97.00743	4
97.03975	5
97.98261	67
98.01515	105
98.03622	12
98.0602	2
98.07273	4
98.10895	8
98.981	26
98.99977	203
99.02306	80
99.08043	1
99.98507	5
100.00735	317
100.99663	65
101.01544	129
101.0386	6
101.96445	30
102.00454	100
102.96303	42
103.01248	41
103.05424	6
103.96161	10
104.0621	25
105.93724	39
106.05265	5
106.06522	8
106.9451	138
107.04932	8
107.93418	32
107.97601	61
108.06826	3
108.94208	110
108.96069	143
108.98387	29
109.02851	3
109.10123	20
109.97337	17
110.01517	10
110.04768	5
110.06008	1
110.09663	12
110.10908	10
110.93906	14
110.95788	93
110.98105	20
111.02283	8
111.06773	4
111.11675	8
112.01543	1
112.05203	1
112.95471	13
113.03851	27
113.0598	2
113.96463	24
114.97221	119
115.05432	16
115.07552	1
115.97081	68
116.06204	1
116.90608	311
117.05752	14
117.07007	14
117.42172	42
117.90938	8
117.93722	44
118.42024	65
118.90306	308
118.94514	88
118.9915	3
119.41859	33
119.90653	2
119.9435	100
119.9764	28
119.9996	14
120.04442	7
120.05714	9
120.08083	3
120.09338	2
120.90028	102
120.94198	45
120.96057	11
120.98412	52
121.10137	6
122.01523	51
122.08358	5
122.09661	7
122.98112	39
123.00785	25
123.02285	79
123.0441	1
123.05546	5
124.03084	61
124.06313	4
124.07574	4
124.11209	3
124.99651	15
125.03852	88
125.05991	1
125.07118	2
125.09631	7
126.04634	49
126.06762	5
126.14058	3
127.0544	15
128.06194	20
129.93735	153
130.94511	111
131.0856	4
131.4278	9
131.93419	94
131.95296	112
131.97607	37
132.09329	5
132.42647	3
132.45673	6
132.95145	263
132.98396	76
133.10127	2
133.93138	6
133.95007	65
133.9684	38
133.9917	30
134.03626	4
134.07248	14
134.939	21
134.95758	54
134.97641	219
134.99284	22
135.06232	5
135.07201	5
135.08044	20
135.96571	6
136.00737	49
136.05205	5
136.08023	15
136.08832	15
136.11218	1
136.92415	30
136.97316	142
137.0708	2
137.92276	40
138.0045	16
138.10374	2
138.93057	19
138.97057	12
140.90594	393
141.06992	20
141.93721	15
142.07344	2
142.90318	379
142.92158	47
142.94502	62
143.06058	6
143.07284	2
143.10702	5
143.91605	10
143.95276	17
144.08075	6
144.90007	115
144.91876	48
144.94217	40
144.98393	5
145.0398	9
145.91307	1
145.95001	3
145.96838	13
146.91574	16
146.93858	11
146.9865	3
146.99979	17
147.06529	3
147.09175	4
147.11659	6
147.93791	3
147.96544	9
148.00743	30
148.05194	3
148.11189	4
148.99669	8
149.02348	58
150.06784	2
150.10385	1
151.01253	9
152.15587	3
154.07767	6
154.90315	19
154.94501	26
155.06061	15
155.91066	16
155.95299	12
156.94179	22
156.96072	97
156.98399	8
157.99161	57
158.10896	3
158.95789	63
158.99985	102
159.11679	6
159.98851	7
160.00749	410
160.12436	4
160.95458	10
160.9967	28
161.01103	74
161.05983	6
161.0959	6
162.00459	128
162.0229	32
163.0544	6
163.11197	5
163.14821	1
163.98415	4
164.90604	150
164.94922	2
166.07771	3
166.90314	156
166.92171	74
166.94488	24
167.95312	32
168.08872	6
168.90047	46
168.91872	72
168.94223	33
168.96042	55
169.10136	1
169.92287	2
169.96863	4
170.04105	9
170.09657	1
170.10907	1
170.91566	26
170.93426	4
170.95766	36
170.97205	12
171.96553	5
172.96629	32
173.1328	5
173.96226	19
174.96402	20
176.98515	14
177.1277	4
177.91408	17
177.99498	2
178.0778	7
178.87958	14
179.00098	3
179.91121	11
179.92935	33
180.96095	24
181.92635	33
181.96823	31
182.95798	18
182.9765	155
183.96555	24
183.9796	18
184.97339	111
185.09628	2
185.97655	17
186.97075	10
189.02165	73
189.12764	1
189.16394	7
190.92146	350
191.00085	14
191.01849	22
191.17941	8
191.92998	35
192.91849	335
192.93712	35
192.98026	5
193.01703	2
193.05012	6
193.10124	1
193.92691	33
193.96822	335
194.91547	98
194.93451	36
194.95789	13
194.97615	117
194.99585	3
195.1165	2
195.96544	212
195.98386	371
196.97342	58
196.98752	34
197.09589	3
197.13226	1
197.96228	31
197.98097	235
198.97066	4
198.98421	21
199.9782	33
200.88296	230
202.87961	282
202.92148	30
203.0853	11
203.17934	5
203.92976	254
204.0018	2
204.87704	134
204.91884	19
204.93771	57
205.89922	4
205.92615	240
206.01744	3
206.87384	23
206.91539	12
206.93457	58
207.03204	68
207.11681	7
207.89647	8
207.92387	65
208.0313	12
208.92506	36
209.0295	2
213.89015	43
215.08556	6
215.88774	58
215.92941	11
216.93758	123
217.88477	27
217.92619	13
217.94519	22
218.93463	121
218.9528	19
219.94292	8
220.93178	36
220.95033	12
222.98242	78
224.8824	34
224.97929	44
225.89038	48
226.87952	38
226.89891	55
227.88796	60
227.92949	32
228.877	14
228.89562	82
228.93761	31
229.88515	27
229.92697	28
229.9455	319
230.89244	36
230.93416	29
230.95381	47
231.94211	306
232.94539	36
233.93889	91
234.84398	492
234.94742	6
235.85193	151
236.84128	811
237.84936	219
237.89037	27
238.83739	522
238.89862	27
239.84619	133
239.88798	41
239.97858	2
240.8347	158
240.89497	42
241.84306	38
241.85802	2
241.88525	14
241.90343	17
241.97614	4
242.83197	23
242.89189	14
243.85449	16
244.86227	9
247.85161	16
249.84886	25
250.89815	24
251.8457	12
251.90684	4
252.89572	30
252.91408	14
254.91069	5
256.94321	6
260.85898	238
262.85684	389
263.86041	16
263.9064	331
264.85342	240
264.91452	69
265.02011	4
265.85681	17
265.90335	417
266.85068	67
266.91251	93
266.99915	5
267.88306	5
267.90076	195
268.90909	48
269.81235	224
269.89786	40
271.80948	444
271.87683	4
272.81274	11
273.80698	347
273.87387	6
274.81033	19
274.8299	2
274.9473	5
275.80423	152
275.86334	4
275.93729	7
276.82648	9
276.87186	12
277.80139	25
278.82312	1
278.86926	11
281.05142	15
282.82098	4
284.81747	12
285.00973	3
286.8143	7
298.87488	132
299.88272	27
300.87176	214
300.89139	31
301.88147	46
302.8689	148
302.8877	37
303.71509	6
303.87708	25
304.86618	32
304.88455	25
324.9866	2
326.96552	6
334.85242	69
336.84915	134
336.86746	30
337.85348	14
338.84546	100
338.86359	53
340.84305	42
340.86112	44
341.01828	2
342.85925	12
344.88525	5
370.82834	441
371.83243	42
372.8255	999
373.82803	99
374.82315	946
375.82593	90
376.81928	471
377.82251	41
378.81576	144
379.81876	17
380.81387	24
381.857	2
384.8562	11
388.84976	3
407.79492	5
409.79108	14
