Mass spectrum: PCB-37; GC-EI-FT; MS; Positive
Name: PCB-37
Name: 3,4,4'-Trichlorobiphenyl
Class: Non-Natural Product; PCB
Formula: C12H7Cl3
Exact mass: 255.96133
SMILES: C1=CC(=CC=C1C2=CC(=C(C=C2)Cl)Cl)Cl
InChI: InChI=1S/C12H7Cl3/c13-10-4-1-8(2-5-10)9-3-6-11(14)12(15)7-9/h1-7H
Instrument: Trace 1310 GC, Thermo Scientific; Q Exactive Orbitrap, Thermo Scientific
Instrument type: GC-EI-FT
Ms type: MS
Ion mode: POSITIVE
Retention time: 13.9264
Base peak: 186.0228
m/z	relative intensity
51.02306	1
54.39898	2
55.01783	2
55.05431	8
56.04945	1
56.06206	20
57.06988	17
61.00737	5
62.01519	9
63.02288	5
63.9886	6
64.48792	5
65.03854	1
66.04649	1
67.05433	7
68.05757	1
68.06205	2
69.06988	2
72.98392	6
73.00736	4
74.01519	50
74.98096	2
75.02296	122
75.52473	9
76.03076	11
77.03854	9
78.04188	1
78.04651	2
79.05418	3
80.00347	11
81.06999	4
83.97616	6
83.99947	4
84.08072	1
84.98399	11
85.00735	11
85.97325	2
86.01516	19
86.98105	3
87.02306	23
88.03078	3
89.03851	3
89.53006	12
91.05433	6
92.00342	27
92.5075	7
93.01124	111
93.05746	1
93.06999	5
93.51298	13
94.00996	33
94.04128	2
94.07777	1
94.51143	4
96.00429	1
96.03383	1
96.08086	1
96.98411	14
97.00744	3
97.9826	4
98.01515	40
99.02303	53
100.0307	14
101.00863	3
101.03859	6
105.06985	2
106.06527	1
106.07787	3
106.51046	21
106.94508	2
107.01218	2
107.50915	6
107.9761	5
108.09333	1
108.98396	13
109.00742	5
109.99196	101
110.01519	11
110.49358	17
110.9902	69
111.02285	20
111.49204	12
111.98872	10
112.02626	1
113.03851	14
114.0463	4
114.97224	2
115.05432	3
117.06974	3
118.07761	1
119.9996	3
120.98414	5
121.00736	3
121.10138	1
122.01521	23
122.98113	1
122.99944	3
123.02286	44
123.11703	2
123.99493	3
124.03089	23
124.99689	3
125.03851	41
126.04636	19
127.05412	2
127.98032	50
128.48181	6
128.97878	49
129.04488	9
129.07002	2
129.48024	5
129.97711	16
131.08562	2
131.97615	2
132.0934	2
132.98396	4
133.0136	2
133.10132	2
133.99178	6
134.99963	7
135.02274	3
135.1167	1
135.98912	2
136.00742	55
136.12463	2
136.99684	2
137.01062	2
137.03859	7
137.05969	1
138.00455	18
138.04628	2
139.05409	5
141.06995	3
145.96851	5
146.01534	5
146.10438	1
146.10912	2
146.99945	10
147.02284	4
147.96542	4
148.00754	8
148.03068	6
148.12462	2
148.9967	3
149.02358	5
149.03867	113
150.00472	3
150.04512	78
150.0461	592
150.05353	1
151.05437	347
152.05771	49
153.04466	2
153.07007	4
157.10124	1
158.99933	10
160.00751	44
160.99678	4
161.01103	5
162.00456	14
162.0229	2
163.00581	5
165.06978	1
167.04909	6
169.06486	33
169.06664	2
169.96863	15
170.06799	5
170.10907	3
171.9657	11
172.00736	2
173.01549	2
175.14792	1
176.98544	1
177.04489	4
179.06014	78
180.06351	9
182.97658	4
182.99983	2
184.00774	36
184.97336	3
185.01515	42
186.00446	12
186.02281	999
186.02622	11
186.0419	5
187.01276	13
187.02632	124
188.01999	318
189.02377	41
190.02701	1
191.00087	2
193.96823	7
195.96545	5
195.98395	7
197.981	4
203.02553	6
205.02278	1
206.97612	4
207.03207	11
208.97369	3
213.02162	17
214.0246	2
215.01862	5
219.9841	46
220.99219	10
221.98151	29
222.00032	7
222.98874	7
223.9785	4
223.99649	3
229.94556	2
255.95467	5
255.96126	519
256.96426	65
257.93192	1
257.95084	4
257.95749	500
258.96106	63
259.95474	166
260.95868	22
261.95233	16
262.95529	1
