Mass spectrum: PBDE-71; GC-EI-FT; MS; Positive; CE: 35
Name: PBDE-71
Name: 2,3,4,6-Tetrabromodiphenyl ether
Class: Non-Natural Product; Brominated Flame Retardant
Formula: C12H6Br4O
Exact mass: 481.7152
SMILES: C1=CC(=C(C(=C1)Br)OC2=CC(=C(C=C2)Br)Br)Br
InChI: InChI=1S/C12H6Br4O/c13-8-5-4-7(6-11(8)16)17-12-9(14)2-1-3-10(12)15/h1-6H
Instrument: Trace 1310 GC, Thermo Scientific; Q Exactive Orbitrap, Thermo Scientific
Instrument type: GC-EI-FT
Ms type: MS
Ion mode: POSITIVE
Collision energy: 35 eV
Retention time: 23.1911
Base peak: 325.8754
m/z	relative intensity
104.05774	2
104.06205	2
105.07006	1
106.04147	2
107.97839	3
107.99947	4
108.48209	41
108.98381	4
109.00738	15
109.06485	2
109.10119	2
109.48135	38
109.98287	2
110.01509	27
111.02306	40
111.04419	1
112.03098	17
113.03875	12
114.06783	2
115.039	1
115.07541	1
115.9258	5
116.06227	1
116.93346	17
117.92375	5
118.93153	19
119.08554	1
120.05704	1
122.01508	1
122.98363	10
123.98253	7
125.03878	1
126.04662	1
126.06752	2
127.03908	1
127.92584	9
128.06224	2
128.08322	1
128.93347	3
129.06993	3
129.92378	11
130.07765	3
130.93137	2
131.04922	2
131.08553	2
131.99962	3
133.01349	2
133.1012	1
134.01531	2
135.02304	2
136.03072	2
136.4827	3
137.03851	254
137.48164	4
138.0466	332
139.04872	2
139.05444	94
140.0578	10
140.93327	21
141.06985	2
141.94125	23
142.0779	3
142.93147	20
142.94908	8
143.93924	21
144.94731	10
145.10101	2
147.06576	4
149.02353	3
152.04199	4
152.06215	2
152.93339	36
153.06998	1
153.92371	2
153.94118	72
154.93152	38
154.94444	7
155.93932	71
156.08107	2
156.09358	3
156.94273	7
158.10939	1
159.11679	2
161.93874	76
162.44026	10
162.93761	165
162.97002	2
163.14821	1
163.43936	24
163.93677	81
164.43852	7
165.0697	2
166.04144	79
166.07761	2
166.94884	3
167.04497	12
168.05696	6
168.94685	3
169.10133	1
169.93648	33
170.09647	2
170.84381	4
170.93956	3
171.05905	2
171.11671	2
171.93411	35
172.84212	8
174.83978	5
176.98546	4
179.00084	1
181.0855	1
182.95525	3
183.11684	1
184.95302	3
185.09622	3
190.09866	1
190.94894	11
191.00076	4
191.95702	3
192.0934	2
192.94714	12
192.98027	5
193.01675	1
193.95511	2
194.84392	7
195.05501	3
196.84216	13
198.10431	1
198.83963	8
202.892	3
207.1023	2
213.09088	3
215.95662	10
216.96507	283
217.10147	1
217.95483	7
217.96844	32
218.96239	260
219.96573	28
220.85957	49
221.08421	6
222.85745	95
223.86058	4
224.85544	44
232.8605	2
234.85756	4
243.95177	12
244.96018	22
245.94989	13
245.96741	60
246.9579	22
246.97098	9
247.84744	1
247.96591	61
248.85463	2
248.96863	8
249.8436	2
249.86267	3
250.85257	5
251.86116	4
252.85043	2
252.98318	1
253.85791	3
260.866	13
262.8638	23
264.8616	12
265.02036	1
266.99942	2
267.99844	1
270.87521	1
272.87329	3
272.96634	21
273.96884	2
274.96329	21
275.96674	2
281.0516	10
282.04953	2
283.04843	1
283.18393	2
294.8754	9
296.87332	22
298.87082	11
323.87826	507
324.88159	64
324.98694	2
325.87543	999
326.87857	107
326.966	2
327.8736	472
328.87799	53
329.88052	4
341.01694	3
352.87463	1
356.07135	2
374.80225	2
376.80057	6
378.79831	6
380.79443	2
401.78824	6
403.7858	15
403.80319	7
405.78543	15
405.80298	19
406.78754	2
407.78229	4
407.79996	20
408.80289	3
409.79935	5
429.08902	2
430.08942	1
481.71463	60
482.7179	6
483.71246	233
484.71606	28
485.71124	344
486.71252	41
487.70804	228
488.71234	30
489.70548	56
490.71024	8
