Mass spectrum: Dodecamethylpentasiloxane (L5); GC-EI-FT; MS; Positive
Name: L5
Name: Dodecamethylpentasiloxane
Class: Non-Natural Product; Polysiloxane
Formula: C12H36O4Si5
Exact mass: 384.14599
SMILES: C[Si](C)(C)O[Si](C)(C)O[Si](C)(C)O[Si](C)(C)O[Si](C)(C)C
InChI: InChI=1S/C12H36O4Si5/c1-17(2,3)13-19(7,8)15-21(11,12)16-20(9,10)14-18(4,5)6/h1-12H3
Instrument: Thermo Scientific Q Exactive GC Hybrid Quadrupol-Orbitrap
Instrument type: GC-EI-FT
Ms type: MS
Ion mode: POSITIVE
Base peak: 147.0655
m/z	relative intensity
59.03117	11
73.04681	363
74.04636	39
91.05741	4
117.01865	27
133.04994	22
147.06548	999
148.06503	158
150.0444	35
162.96962	1
191.00093	22
192.98024	4
205.01663	9
207.03217	71
225.04285	10
248.98845	61
250.98531	9
265.01974	82
267.01657	11
281.05093	387
284.04748	10
353.09082	1
369.12174	22
