Mass spectrum: Benzyl benzoate; GC-EI-FT; MS; Positive
Name: Benzyl benzoate
Name: Benylate
Class: Non-Natural Product; Pharmaceutical; Industrial Chemical 
Formula: C14H12O2
Exact mass: 212.08373
SMILES: C1=CC=C(C=C1)COC(=O)C2=CC=CC=C2
InChI: InChI=1S/C14H12O2/c15-14(13-9-5-2-6-10-13)16-11-12-7-3-1-4-8-12/h1-10H,11H2
Instrument: Trace 1310 GC, Thermo Scientific; Q Exactive Orbitrap, Thermo Scientific
Instrument type: GC-EI-FT
Ms type: MS
Ion mode: POSITIVE
Retention time: 8.46
m/z	relative intensity
51.02297	7
65.03861	53
74.01519	4
76.03083	8
77.03861	279
78.04202	28
79.05428	65
82.53474	3
90.04649	45
91.05428	379
92.05765	30
104.02573	2
105.03355	999
105.04481	32
106.03693	83
107.04922	36
128.06215	1
151.05431	2
163.05428	5
164.06212	5
167.08554	134
168.08896	28
194.0726	258
195.07602	38
212.08321	65
