Mass spectrum: 6:2 FTBr; GC-EI-FT; MS; Positive
Name: 6:2 FTBr
Name: 1H,1H,2H,2H-Perfluorooctyl bromide
Class: Non-Natural Product; Per- and polyfluoroalkyl substances (PFAS)
Formula: C8H4BrF13
Exact mass: 425.928879
SMILES: C(CBr)C(C(C(C(C(C(F)(F)F)(F)F)(F)F)(F)F)(F)F)(F)F
InChI: InChI=1S/C8H4BrF13/c9-2-1-3(10,11)4(12,13)5(14,15)6(16,17)7(18,19)8(20,21)22/h1-2H2
Instrument: Thermo Scientific Q Exactive GC Hybrid Quadrupol-Orbitrap
Instrument type: GC-EI-FT
Ms type: MS
Ion mode: POSITIVE
Base peak: 77.01971
m/z	relative intensity
51.00412	59
57.01353	12
65.01975	106
68.99468	407
75.00413	35
77.01971	999
78.02312	35
89.01978	41
92.93354	321
92.99477	25
94.93147	306
95.01039	79
96.98969	18
99.99313	97
106.93147	11
106.94916	210
108.01821	30
108.94713	219
109.02605	31
110.92406	64
112.92201	67
113.00095	82
115.0166	58
118.99153	146
119.0104	19
127.01657	36
128.91463	28
130.91261	30
130.99152	317
131.99487	11
133.0136	34
134.94405	15
136.94202	22
137.0009	12
139.01656	17
145.00716	54
154.93019	18
156.92816	17
156.94592	141
158.94385	130
162.99773	32
168.98819	22
169.00708	12
180.98827	40
191.00099	37
207.00388	16
212.99451	60
225.04295	24
230.98515	12
242.98508	17
257.00092	30
262.99149	40
277.00693	20
280.98181	14
327.00384	17
