Mass spectrum: 4-Nitroanisole; GC-EI-FT; MS; Positive
Name: 4-Nitroanisole
Name: 1-Methoxy-4-nitrobenzene
Class: Non-Natural Product; Industrial Chemical
Formula: C7H7NO3
Exact mass: 153.04259
SMILES: COC1=CC=C(C=C1)[N+](=O)[O-]
InChI: InChI=1S/C7H7NO3/c1-11-7-4-2-6(3-5-7)8(9)10/h2-5H,1H3
Instrument: Trace 1310 GC, Thermo Scientific; Q Exactive Orbitrap, Thermo Scientific
Instrument type: GC-EI-FT
Ms type: MS
Ion mode: POSITIVE
Retention time: 6.91
Base peak: 123.0439
m/z	relative intensity
52.03076	9
61.00728	4
63.02288	148
65.03857	51
67.05422	19
74.01508	32
77.03852	413
78.04192	46
80.02563	19
92.02559	414
95.04907	324
105.04471	25
107.0491	27
120.04436	1
123.04394	999
124.04738	79
125.05969	7
137.04706	86
153.04187	923
154.04527	75
