Mass spectrum: 1,2,3,4-Tetrachloronaphthalene; GC-EI-FT; MS; Positive
Name: 1,2,3,4-Tetrachloronaphthalene
Name: Naphthalene, 1,2,3,4-tetrachloro-
Class: Non-Natural Product; Polychlorinated Naphthalene
Formula: C10H4Cl4
Exact mass: 263.90671
SMILES: C1=CC=C2C(=C1)C(=C(C(=C2Cl)Cl)Cl)Cl
InChI: InChI=1S/C10H4Cl4/c11-7-5-3-1-2-4-6(5)8(12)10(14)9(7)13/h1-4H
Instrument: Thermo Scientific Q Exactive GC Hybrid Quadrupol-Orbitrap
Instrument type: GC-EI-FT
Ms type: MS
Ion mode: POSITIVE
Base peak: 265.90326
m/z	relative intensity
55.01793	1
56.06206	5
57.03358	2
60.02061	4
61.02846	1
62.01519	2
63.02301	2
68.02578	2
68.0621	1
71.04928	2
73.0469	5
74.0152	35
75.02299	25
81.03363	2
83.04926	3
83.9762	10
84.98405	11
86.01526	8
87.02317	1
88.05196	2
89.05979	2
95.97617	6
96.09335	2
96.47999	2
96.98399	45
97.98248	18
98.01528	66
98.10467	2
98.98116	7
99.02318	20
99.11685	1
102.06747	2
102.96323	5
103.05439	3
104.06226	3
107.97624	35
108.05699	1
108.98412	35
109.97324	13
110.01536	4
110.98096	10
111.11694	6
113.03872	4
113.96446	22
114.46861	6
114.96322	19
115.05385	7
115.96162	5
116.0622	7
117.03664	2
117.93743	6
118.07777	2
118.94505	24
119.94376	38
119.9762	10
120.44518	2
120.94226	18
120.98401	6
121.00722	4
122.01506	88
123.02306	213
123.04388	2
123.0806	2
124.03072	177
124.12497	3
125.03422	18
127.07546	5
129.06952	23
130.07761	7
130.94502	4
131.95281	103
131.97638	36
132.45454	5
132.95131	125
132.98418	43
133.4529	12
133.94994	62
133.97324	11
134.45183	7
134.94852	12
134.98134	13
135.08069	1
136.08818	2
137.13229	5
139.11165	2
141.93753	6
142.94525	6
143.0852	2
143.93454	4
144.05705	2
144.94211	4
145.06477	3
146.93854	1
146.99974	6
147.08061	3
148.12477	8
149.01559	5
149.04489	2
150.04649	2
150.1042	1
151.02435	1
151.05424	3
151.07516	2
152.02386	1
155.97584	4
156.98386	25
157.06465	3
157.99202	97
158.99547	13
158.99971	220
159.0805	2
159.98889	51
160.99661	73
161.0959	2
161.13261	22
162.00009	4
162.14017	4
163.1481	4
164.98546	1
166.07759	1
166.94476	6
167.953	4
170.07252	2
171.13821	1
172.12474	3
173.09601	2
176.06187	1
176.15175	2
178.0777	3
181.1006	6
181.10126	5
181.9684	5
189.16376	3
190.07753	1
190.1718	2
191.00137	5
191.10698	2
191.95277	11
192.96082	37
192.99822	1
193.04999	5
193.1011	4
193.96806	709
194.97163	91
195.08057	2
195.96532	432
196.96881	47
197.96289	71
198.96603	7
201.09088	1
203.92973	3
204.18707	3
210.02899	1
210.99121	1
211.14838	1
215.08516	2
216.93758	8
217.19502	2
218.93448	6
222.14044	2
224.15573	3
227.17949	1
227.92928	52
228.93738	136
229.92673	62
230.93486	127
231.92392	23
232.93092	37
233.93498	4
235.1485	3
256.94324	43
257.94748	2
258.94107	35
260.93808	13
263.90634	757
264.91	80
265.90326	999
266.90671	103
267.90064	481
268.90356	45
269.89798	97
270.90027	9
271.8949	7
