Mass spectrum: PCB-156; GC-EI-FT; MS; Positive
Name: PCB-156
Name: 2,3,3',4,4',5-Hexachlorobiphenyl
Class: Non-Natural Product; PCB
Formula: C12H4Cl6
Exact mass: 357.84442
SMILES: C1=CC(=C(C=C1C2=CC(=C(C(=C2Cl)Cl)Cl)Cl)Cl)Cl
InChI: InChI=1S/C12H4Cl6/c13-7-2-1-5(3-8(7)14)6-4-9(15)11(17)12(18)10(6)16/h1-4H
Instrument: Trace 1310 GC, Thermo Scientific; Q Exactive Orbitrap, Thermo Scientific
Instrument type: GC-EI-FT
Ms type: MS
Ion mode: POSITIVE
Base peak: 359.8403
m/z	relative intensity
53.00226	4
53.03864	11
54.01004	2
54.04652	5
55.04172	4
56.02571	4
56.06208	48
57.06989	7
58.07331	1
59.04917	5
61.00739	28
62.01507	2
63.02294	12
63.96143	4
64.96922	3
65.03855	3
66.04652	4
67.04167	4
67.0542	3
68.02579	3
69.03357	7
69.0574	3
71.97603	13
72.98412	12
73.00734	56
73.0285	3
73.04691	3
73.51116	28
74.0152	74
74.97173	4
75.02612	26
75.99398	2
77.03856	3
77.98791	7
78.04208	3
80.03516	6
80.0496	12
81.03362	20
82.01247	4
82.04137	3
82.06515	5
83.03662	1
83.04923	13
83.97613	22
83.99947	27
84.94216	1
84.98398	18
85.00729	64
85.05214	3
85.97327	6
86.0152	53
87.0229	22
88.95106	3
89.95826	13
90.04649	7
90.49184	32
90.9957	20
91.05435	25
91.49973	27
92.05769	1
92.4982	11
93.07001	11
94.04132	16
94.07779	2
94.53463	3
94.96849	6
95.03658	1
95.07288	3
95.97611	22
96.00432	7
96.02076	5
96.05708	2
96.08085	3
96.09345	4
96.9939	29
97.01598	23
97.02848	5
97.06493	5
98.01518	139
98.03627	5
98.04746	1
98.07275	2
99.02316	55
99.05531	2
99.11698	3
104.06213	6
104.94597	2
105.03365	27
105.99905	2
106.06529	6
106.9451	13
107.04929	3
107.9761	93
107.99958	20
108.09335	4
108.48005	16
108.94212	13
108.98394	293
109.00748	68
109.02852	5
109.48576	44
109.98268	150
110.01524	60
110.04771	1
110.07281	2
110.09636	6
110.48425	17
110.98112	32
111.02285	16
112.05206	1
112.06319	2
112.08835	4
113.96465	9
114.06756	1
114.50262	5
115.05435	15
115.49873	10
116.0027	6
116.06204	7
117.02966	21
117.0572	3
117.93726	21
118.0377	19
118.06526	3
118.07759	5
119.04531	4
119.06052	2
119.9344	6
119.9764	5
119.99961	37
120.0572	18
120.09358	3
120.98381	17
121.00735	47
121.02846	2
121.97327	3
122.01522	134
122.0362	1
122.07278	3
122.98116	7
123.02287	54
123.94754	11
124.05203	1
125.05994	3
125.96442	152
126.03119	3
126.06764	2
126.46857	32
126.9631	151
126.9996	1
127.4648	32
127.96166	48
128.04953	3
128.99651	1
130.03325	3
130.06508	10
130.07782	15
130.94519	22
131.08563	10
131.98469	111
131.99937	8
132.04866	6
132.48866	20
132.92268	1
132.94202	5
132.98348	39
133.01363	18
133.05646	21
133.98178	12
134.07266	1
134.48546	6
134.98112	26
134.99287	5
135.96199	7
136.08835	1
136.12499	2
137.03862	17
137.09633	2
137.13255	10
137.95886	6
138.06764	1
138.07896	4
139.00005	9
139.14836	3
140.47163	11
140.90599	12
141.01064	18
141.06996	8
141.47008	19
141.49356	7
141.93713	15
141.99994	16
142.01851	8
142.90323	9
142.94499	36
143.00781	10
143.1066	2
143.94351	21
143.95279	584
143.97649	23
143.9996	30
144.01538	5
144.04413	4
144.45462	65
144.95119	710
144.98395	27
145.00735	27
145.45306	68
145.95004	371
145.96849	10
146.01534	195
146.09634	1
146.10915	2
146.45152	34
146.94829	82
146.98653	11
146.99944	16
147.02287	202
147.06538	5
147.95726	11
148.03068	228
148.07568	5
148.08823	2
148.91769	1
149.03435	22
149.045	29
149.47147	2
150.06787	1
150.97172	51
151.46837	4
152.90608	4
153.45297	6
154.01419	2
155.08542	3
155.97597	35
156.03935	4
156.98415	42
157.05214	16
157.97304	7
157.99167	19
158.98111	13
159.08063	3
159.47282	7
159.98854	9
160.93329	63
161.05931	4
161.09607	2
161.43735	41
161.93166	97
162.43574	70
162.93047	64
163.05443	6
163.4346	48
163.92897	1
164.43256	14
166.95351	18
167.95187	28
168.0069	6
168.9503	32
168.98824	6
169.01477	5
169.96869	25
170.45316	1
170.99968	9
171.08072	3
171.96564	16
173.09616	1
174.97151	6
175.11195	5
176.06158	2
176.98517	13
177.91348	6
178.92142	70
178.9644	4
179.00093	7
179.08507	3
179.42334	8
179.92029	136
179.97603	11
179.99229	6
180.42197	11
180.91859	104
180.96098	14
180.98386	29
181.42042	14
181.91713	27
181.99165	169
182.91618	13
182.95735	11
182.98126	10
182.99983	279
183.98904	56
184.00777	51
184.05199	2
184.99629	76
185.09631	1
185.13214	2
185.94048	6
185.99972	22
186.4375	2
186.93861	29
187.1486	2
191.00092	26
191.95302	24
192.00058	1
192.96095	4
192.98042	1
193.01718	5
193.05017	3
193.95015	20
193.96826	14
194.95793	8
194.99593	2
195.0215	2
195.0807	5
195.96548	8
196.02887	1
196.04793	18
199.03096	3
201.00993	11
201.16373	3
202.07793	2
202.92139	19
203.08533	2
203.92969	20
203.9838	2
204.91902	21
205.92686	19
206.91544	2
207.0321	26
207.92387	9
211.00613	2
213.00241	3
213.09087	3
213.16351	2
215.95291	16
216.96088	83
217.9498	22
217.96857	653
218.95821	44
218.97192	88
219.96576	487
220.96892	62
221.96306	52
222.96555	6
229.00067	2
229.92688	15
231.00372	4
232.00574	20
234.00325	13
234.97163	8
237.89041	10
237.96329	8
239.88783	15
240.78268	3
242.9346	3
245.91757	9
249.91145	6
251.92935	97
252.93822	94
253.92639	93
253.94586	9
254.93503	94
255.92398	28
255.94266	12
256.93234	24
261.89099	2
263.88806	8
263.96942	6
265.98605	5
267.98312	5
268.97238	10
271.92383	3
282.05173	2
282.94107	12
286.8978	11
287.90591	628
288.89548	16
288.90985	71
289.90353	687
290.89282	8
290.90604	85
291.90064	397
292.90427	47
293.8967	65
294.90109	9
294.98129	3
300.94089	2
302.93771	7
303.71371	4
305.93716	10
321.86661	20
322.87463	12
323.86401	33
323.88272	15
324.87195	9
324.98669	3
325.86099	11
325.88025	29
326.8688	9
327.87698	20
329.8739	8
334.91495	1
335.9238	4
337.90189	1
337.91995	11
338.90906	6
339.91751	4
355.07056	5
357.84464	519
358.8475	64
359.84027	999
360.84427	90
361.83777	757
362.841	84
363.83527	305
364.83887	18
365.83203	67
367.82867	9
369.88379	17
370.87833	10
372.87424	6
373.87875	26
375.87521	16
376.8685	4
452.30218	2
