Mass spectrum: PBDE-85; GC-EI-FT; MS; Positive; CE: 35
Name: PBDE-85
Name: 2,2,3,4,4-Pentabromodiphenyl ether
Class: Non-Natural Product; Brominated Flame Retardant
Formula: C12H5Br5O
Exact mass: 559.6257
SMILES: C1=CC(=C(C=C1Br)Br)OC2=C(C(=C(C=C2)Br)Br)Br
InChI: InChI=1S/C12H5Br5O/c13-6-1-3-9(8(15)5-6)18-10-4-2-7(14)11(16)12(10)17/h1-5H
Instrument: Trace 1310 GC, Thermo Scientific; Q Exactive Orbitrap, Thermo Scientific
Instrument type: GC-EI-FT
Ms type: MS
Ion mode: POSITIVE
Collision energy: 35 eV
Retention time: 29.10377
Base peak: 403.7859
m/z	relative intensity
103.05444	14
104.06231	13
106.04144	9
107.04923	8
107.08582	6
107.97822	25
107.99944	2
108.05699	1
108.08081	3
108.09344	3
108.48204	11
108.97739	20
109.00733	43
109.06506	4
109.48134	17
110.01537	83
111.02303	66
111.04413	2
111.11705	1
112.03091	18
112.05191	2
113.03878	7
113.05968	3
114.04649	3
115.0032	7
115.03893	3
115.05421	34
115.07539	1
115.92577	10
116.06224	5
116.93347	20
117.05737	5
117.06998	32
118.04129	3
118.0778	12
118.93146	32
118.96177	2
119.04921	2
120.08099	3
120.09335	2
121.06477	2
121.06585	4
121.97565	21
122.01506	4
122.97477	27
124.99824	4
125.13261	2
125.4838	2
127.039	1
127.05435	7
127.9258	18
128.08321	1
129.92368	17
130.07349	11
130.07764	20
130.99167	4
131.03432	2
131.04925	5
131.08102	3
131.08548	11
131.9996	13
132.08891	4
132.92297	2
133.01386	43
133.0468	7
133.06496	3
133.10121	4
134.0157	11
134.03654	5
134.06026	2
134.10901	1
135.02303	17
135.06253	2
135.08064	2
135.117	10
136.03066	56
136.05196	6
137.0389	689
138.04657	208
139.03902	6
139.05444	64
139.07556	3
139.92577	17
140.05778	5
140.93367	173
141.0545	3
141.09093	1
141.92346	13
141.94122	30
142.06239	1
142.45487	2
142.93152	172
142.94937	12
143.07007	2
143.07053	7
143.08571	14
143.93906	38
144.08107	5
144.09352	3
144.94725	14
145.04704	5
145.10147	8
146.07251	3
146.10471	2
146.10896	3
146.93855	7
147.06575	6
147.43744	55
147.90978	1
148.06581	4
148.43633	92
148.91804	3
148.93556	10
148.9541	5
149.06245	5
149.13248	3
149.43535	52
150.04674	2
151.07565	1
151.9259	24
152.93333	132
153.92358	23
153.94109	83
154.06265	7
154.07753	1
154.93149	120
155.08582	3
155.93929	83
157.06471	3
157.10112	2
158.07265	5
158.10455	2
158.10883	7
160.07584	1
160.12476	2
160.95444	5
160.9906	2
161.04707	4
161.05978	2
161.0959	2
161.13268	1
161.93863	44
162.04657	4
162.0676	1
162.93756	62
162.96996	20
163.09395	1
163.14822	2
163.43935	6
163.93669	31
163.96936	4
164.02573	1
164.06168	4
164.91269	3
164.93372	4
164.98549	8
165.0338	10
165.16359	1
166.04137	34
166.06207	1
167.06984	2
168.05701	3
168.08098	4
168.94682	3
169.93646	49
169.97386	3
170.10887	3
170.84421	10
171.08055	3
171.93399	50
172.112	3
172.84206	22
173.09599	2
174.06747	2
174.14021	4
174.83975	12
175.07516	2
175.14786	3
176.06212	3
176.98534	18
177.16345	4
177.95664	1
177.98526	6
178.96489	11
180.00049	2
180.04132	3
180.07764	3
180.0932	1
180.94379	2
183.03558	2
183.08006	3
185.09621	4
185.13258	2
187.05437	2
187.14844	4
188.06209	3
188.98523	4
189.06961	5
189.16385	6
190.09862	2
190.94898	15
191.00142	41
191.08562	3
191.10712	3
192.00038	7
192.0805	2
192.94713	13
192.98026	13
192.99822	11
193.04935	19
193.05008	18
193.97972	1
194.0537	3
194.84387	20
196.8421	39
198.83943	19
199.03081	2
200.0618	2
200.10432	3
200.89363	72
201.16356	2
201.39577	10
201.89293	216
202.39424	24
202.892	201
203.00116	3
203.08519	2
203.39404	24
203.89067	61
204.09316	2
204.11427	4
204.39236	8
205.01656	5
206.90511	1
207.10231	7
208.07274	6
209.13258	2
210.0286	3
213.09079	4
214.94926	52
215.95668	98
216.94708	53
216.96512	107
217.95468	102
217.96843	13
218.96324	115
219.85184	9
219.96648	9
220.85957	100
221.08438	3
221.84944	20
222.04628	1
222.85747	186
222.9369	6
223.84805	10
223.86064	10
224.85536	85
226.12009	3
227.12804	4
230.12993	3
231.8521	42
232.84233	8
233.84962	72
234.84013	2
234.97249	3
235.84793	35
236.95201	3
239.17944	2
243.95178	132
244.9548	14
245.94962	139
245.96719	40
246.95354	10
247.84726	23
247.9659	38
248.85457	11
248.98842	11
249.8447	48
250.85223	22
250.96855	2
250.9856	2
251.84235	20
251.86069	6
252.85037	11
255.12279	5
260.86584	13
262.86371	28
263.14416	2
264.86157	8
267.03558	4
267.06839	2
267.99875	1
268.97836	1
270.23505	4
270.85721	2
272.9664	8
273.25827	1
274.96445	10
277.07846	1
281.05151	40
281.22604	4
282.05075	6
283.03067	1
283.04806	2
285.25787	2
287.00604	1
293.86707	6
294.87531	173
295.86563	9
295.87927	19
296.87338	350
297.87634	40
298.7699	29
298.87097	165
299.87448	16
300.76837	99
302.76587	85
304.76471	32
310.9714	2
312.94974	1
312.96756	2
321.86209	9
322.87036	27
323.00558	2
323.85938	16
323.87824	190
324.86737	55
324.8815	30
324.98682	11
325.87549	382
326.86578	30
326.87848	57
326.96582	7
327.03552	1
327.87366	182
328.7627	9
328.87824	21
328.9624	4
330.76007	9
332.75943	1
340.77365	15
341.01858	33
341.08786	2
342.77286	17
350.87662	17
352.87476	29
353.01871	1
354.8717	15
355.06937	5
365.32077	4
372.78531	7
374.78272	16
376.7822	20
401.78812	327
402.7926	35
403.78589	999
404.78937	120
405.78543	970
406.7876	123
407.78226	311
408.78552	28
415.03754	4
430.08957	1
431.08603	3
461.09164	2
481.69995	22
481.71445	26
483.69495	25
483.71207	106
484.71567	9
485.71109	152
486.71469	21
487.70798	99
488.71219	12
489.70566	27
490.12714	2
504.10764	1
549.16113	1
559.62775	60
560.63031	8
561.62598	291
562.62738	37
563.62073	536
564.62396	69
565.61884	568
566.62353	77
567.61658	257
568.62329	29
569.61774	55
