Mass spectrum: Tris(1-methylethyl)silyl 2-propenoate; GC-EI-FT; MS; Positive
Name: Tris(1-methylethyl)silyl 2-propenoate
Name: Triisopropylsilyl acrylate
Class: Non-Natural Product
Formula: C12H24O2Si
Exact mass: 228.15456
SMILES: CC(C)[Si](C(C)C)(C(C)C)OC(=O)C=C
InChI: InChI=1S/C12H24O2Si/c1-8-12(13)14-15(9(2)3,10(4)5)11(6)7/h8-11H,1H2,2-7H3
Instrument: Trace 1310 GC, Thermo Scientific; Q Exactive Orbitrap, Thermo Scientific
Instrument type: GC-EI-FT
Ms type: MS
Ion mode: POSITIVE
Retention time: 6.44
Base peak: 185.0992
m/z	relative intensity
55.01788	53
58.0234	1
61.01045	54
69.01559	2
71.03123	31
73.04689	11
75.02613	189
77.00539	13
85.01049	4
87.02616	10
89.04179	8
93.03674	3
97.0469	5
101.00543	9
103.05744	20
111.02616	2
113.07819	4
115.02105	165
116.02064	14
127.0211	9
129.03667	232
130.04013	23
133.03166	15
142.04457	6
143.05235	93
147.04727	10
155.05234	9
157.06795	309
161.06291	12
175.07857	21
183.08363	11
185.0992	999
186.10262	135
203.10982	44
