Mass spectrum: TBPH; GC-EI-FT; MS; Positive
Name: TBPH
Name: Bis(2-ethylhexyl) tetrabromophthalate
Class: Non-Natural Product; Brominated Flame Retardant
Formula: C24H34Br4O4
Exact mass: 701.91906
SMILES: CCCCC(CC)COC(=O)C1=C(C(=C(C(=C1Br)Br)Br)Br)C(=O)OCC(CC)CCCC
InChI: InChI=1S/C24H34Br4O4/c1-5-9-11-15(7-3)13-31-23(29)17-18(20(26)22(28)21(27)19(17)25)24(30)32-14-16(8-4)12-10-6-2/h15-16H,5-14H2,1-4H3
Instrument: Thermo Scientific Q Exactive GC Hybrid Quadrupol-Orbitrap
Instrument type: GC-EI-FT
Ms type: MS
Ion mode: POSITIVE
Base peak: 83.08565
m/z	relative intensity
51.02309	5
53.03861	23
54.0465	25
55.01796	72
55.05433	573
56.02573	5
56.05771	26
56.0621	153
57.0336	28
57.06552	7
57.0699	516
58.07331	26
59.03126	7
59.04924	12
60.02061	23
61.01048	5
61.02851	10
63.02321	4
65.03868	31
66.04652	30
67.05421	515
68.02582	5
68.05775	32
68.06211	91
69.03356	29
69.06544	8
69.06991	524
70.04144	10
70.07339	32
70.07777	752
71.04914	24
71.08115	47
71.08562	637
72.08892	32
73.02852	105
73.04694	160
73.06488	9
74.01526	8
74.03628	11
74.04653	13
74.0503	4
75.02617	19
75.04379	5
76.03086	10
77.00542	6
77.0386	107
78.04198	8
78.0466	75
78.91786	13
79.05426	354
79.92565	15
80.04947	5
80.05776	18
80.06216	92
80.91596	10
81.03365	14
81.06989	723
81.92374	13
82.04148	10
82.07341	42
82.07777	380
83.04931	89
83.08123	29
83.08565	999
84.05251	5
84.05706	76
84.08892	68
84.09344	480
85.02847	10
85.06046	6
85.0649	27
85.09688	39
85.1013	67
86.03631	9
87.04414	81
89.03864	10
90.04662	4
91.05425	330
92.05782	24
92.06207	57
93.07015	237
94.0652	5
94.0733	21
94.07791	62
95.04919	29
95.08572	425
96.0042	19
96.057	48
96.08102	5
96.08909	32
96.09339	100
96.99405	6
97.02866	5
97.06509	89
97.10128	242
97.49378	6
98.03645	28
98.06823	4
98.07291	137
98.10477	13
98.10915	4
99.04414	18
99.07614	10
99.08062	21
99.11691	10
100.05212	8
101.05981	22
102.0465	10
102.96693	9
103.05445	50
104.05777	5
104.06231	69
105.03365	7
105.04491	9
105.06572	9
105.07003	209
106.04146	9
106.06519	6
106.07343	20
106.0778	34
107.0493	14
107.08553	171
108.05704	8
108.089	14
108.09351	67
109.06509	37
109.10146	250
110.07269	32
110.10465	26
110.10927	52
111.04407	14
111.08055	62
111.1126	8
111.11698	119
112.08826	42
112.12044	10
112.12488	224
113.05974	42
113.09621	9
113.12815	20
113.13268	51
114.06776	28
115.00321	15
115.03899	15
115.05423	115
115.07543	25
116.04691	19
116.05783	14
116.06226	23
117.01871	7
117.03671	9
117.05467	21
117.06998	199
118.07347	16
118.07782	47
118.99806	37
119.08551	193
120.08106	6
120.08925	20
120.09338	42
121.06488	13
121.10126	225
122.07302	5
122.09655	4
122.10491	15
122.10918	40
123.0444	5
123.08064	51
123.11692	145
124.08826	15
124.12053	18
124.12493	20
125.05984	6
125.09622	27
125.13264	38
126.04666	6
126.06747	13
126.10403	5
127.05443	6
127.07553	29
128.06224	68
129.03691	6
129.0546	41
129.06563	11
129.06993	125
129.0912	48
130.05818	4
130.06535	5
130.07339	15
130.07803	40
131.03441	5
131.0493	5
131.08551	140
132.08885	15
132.09369	21
132.923	7
133.01387	119
133.05017	6
133.065	6
133.10123	147
134.01337	12
134.03661	4
134.10457	11
134.10904	46
135.0294	6
135.04414	5
135.06267	13
135.08064	16
135.1124	6
135.11699	144
136.08868	6
136.12016	17
136.12488	24
137.00839	8
137.09622	48
137.13281	82
138.09976	4
138.10419	12
138.13593	7
138.14067	13
139.0545	7
139.07562	10
139.11166	18
139.14827	10
141.06981	56
141.091	9
141.12744	5
142.07787	35
143.07016	10
143.08118	5
143.08572	88
143.10692	16
144.08116	8
144.08905	11
144.09366	25
145.06494	8
145.08652	4
145.10147	112
146.07304	11
146.10492	14
146.10901	23
146.93863	13
147.06581	69
147.08052	13
147.11702	117
148.06531	14
148.12053	12
148.12488	26
149.02348	10
149.04483	26
149.09624	13
149.13286	74
150.10429	7
150.13588	9
150.14032	9
151.02432	27
151.05432	5
151.07574	3
151.11205	38
151.14839	25
151.92592	11
152.02396	4
152.06216	18
152.11957	12
152.15633	8
152.91614	5
153.06998	22
153.12746	8
153.92377	8
154.06223	4
154.07762	10
155.06039	11
155.08588	30
155.10661	5
155.14291	5
156.08109	5
156.09358	18
157.08586	5
157.1011	48
157.12233	9
158.05757	28
158.07265	4
158.10518	5
158.10892	15
159.06552	6
159.0806	4
159.11716	69
160.1205	7
160.12485	13
160.95392	11
161.04169	6
161.09654	4
161.13269	54
162.13582	7
162.14024	11
162.96997	35
163.09404	10
163.11192	8
163.14821	47
163.96947	5
164.15616	6
164.94916	5
164.98552	26
165.07025	28
165.12784	22
165.16362	18
165.98524	4
166.07365	5
166.07768	5
166.17181	11
167.0854	19
167.10704	4
167.14299	6
167.17952	5
168.09335	7
169.10138	32
169.12265	11
170.07272	7
170.10487	5
170.10904	10
171.065	55
171.11659	43
171.13831	10
172.06909	5
172.12059	5
172.12483	12
173.13266	53
174.14032	8
175.0578	4
175.1485	35
175.97797	12
176.15121	6
176.15623	9
176.98534	71
177.16374	24
177.98477	9
178.07762	12
178.16714	5
178.17162	5
178.96494	20
179.00089	19
179.08582	10
179.10704	4
179.14299	18
179.17975	9
179.96431	4
180.09331	5
180.15103	5
180.98053	6
181.10124	15
181.15903	8
182.10892	6
183.0656	8
183.11676	24
183.17465	6
184.08879	6
184.125	6
185.08066	19
185.09624	12
185.11703	13
185.13263	23
185.1535	16
186.14066	5
187.14856	25
188.1515	4
188.15567	6
188.98534	5
189.02159	6
189.06973	8
189.16374	27
190.09872	3
190.16698	5
191.0014	258
191.07094	5
191.08582	7
191.17938	23
192.00041	46
192.07848	5
192.18785	4
192.98032	29
192.99815	25
193.01694	29
193.05005	30
193.10124	6
193.15886	7
193.19562	6
193.97983	5
194.01608	5
194.10895	5
194.97762	5
194.99591	17
195.11723	8
196.12456	4
197.08104	5
197.13307	11
199.0965	5
199.14857	14
199.16965	5
201.16359	22
202.07791	5
202.16736	3
203.1794	19
204.18327	5
205.01651	11
205.19543	8
207.10229	54
207.11684	9
208.10097	4
208.18225	12
209.13271	6
209.18546	4
209.19034	6
210.01077	12
210.02829	7
210.99049	5
211.00877	13
211.02669	8
211.06125	4
211.09663	8
211.1485	8
211.20531	6
212.0836	6
212.15656	5
213.09087	6
213.11261	13
213.16422	22
213.18521	8
214.1667	4
215.08559	6
215.17955	17
216.18768	4
217.19522	15
218.20276	5
219.21129	8
220.21895	4
221.08429	48
221.19031	9
222.08371	6
223.08176	5
223.14882	5
225.04277	173
225.11263	5
225.16429	4
226.04193	26
227.03979	22
227.12823	27
227.17946	13
228.93188	4
229.18027	6
229.19508	17
229.83618	7
231.2112	6
231.83417	9
232.84247	5
235.20573	5
236.21364	28
237.22142	12
239.12798	5
239.17958	5
239.23692	15
240.24022	5
241.14307	8
241.19533	5
243.21126	6
245.22676	8
246.23459	4
247.24239	4
248.98851	56
249.98816	12
250.98573	8
251.00494	6
251.03696	5
253.19505	5
255.21114	13
255.23221	3
257.22653	7
259.2421	4
260.83771	5
264.24545	14
265.02023	60
265.25311	5
266.01904	14
266.99939	49
267.01633	14
267.06854	4
267.26883	12
267.99854	5
268.99615	7
269.17502	8
271.22736	5
271.24176	8
272.25031	5
273.25818	17
281.05145	247
282.05069	45
283.03064	8
283.04807	35
283.19043	9
283.22623	4
285.24237	12
295.10388	4
297.27881	7
299.0625	21
300.06143	5
304.82626	5
304.84485	4
306.84277	10
308.84003	7
311.22189	6
311.25873	6
311.76035	4
313.27383	13
313.75815	5
323.29413	5
324.987	11
326.96588	6
327.03571	4
337.23816	6
339.2529	11
339.28979	7
339.75482	4
341.01862	19
342.01965	3
353.26819	5
353.31989	6
355.07089	24
356.06967	7
357.06702	5
357.76511	4
359.76367	4
365.26804	19
366.27234	4
367.28442	16
368.3446	6
381.29953	5
382.75607	17
384.75311	56
385.75784	5
386.75171	56
388.74902	20
393.29941	20
393.35214	3
395.31674	6
400.74838	4
402.745	4
407.31656	5
418.67322	3
420.67114	3
421.33102	11
421.66153	4
423.34879	4
429.08844	9
435.34796	3
437.67535	3
449.36179	5
460.66644	21
462.66339	89
463.66879	8
464.66147	113
465.39633	4
465.66541	14
466.65958	79
467.66504	7
468.65659	14
482.67206	3
489.12732	4
493.4256	4
