Mass spectrum: HCB; GC-EI-FT; MS; Positive
Name: HCB
Name: Hexachlorobenzene
Class: Non-Natural Product
Formula: C6Cl6
Exact mass: 281.81312
SMILES: C1(=C(C(=C(C(=C1Cl)Cl)Cl)Cl)Cl)Cl
InChI: InChI=1S/C6Cl6/c7-1-2(8)4(10)6(12)5(11)3(1)9
Instrument: Trace 1310 GC, Thermo Scientific; Q Exactive Orbitrap, Thermo Scientific
Instrument type: GC-EI-FT
Ms type: MS
Ion mode: POSITIVE
Retention time: 10.44833
Base peak: 283.8101
m/z	relative intensity
51.02296	2
53.46669	3
55.01794	2
55.05432	11
56.06207	27
57.06988	29
59.04927	2
59.99951	3
61.00738	3
62.0152	16
62.20882	2
63.96143	1
65.03867	1
67.03197	9
67.05434	6
68.02575	2
69.06988	4
70.07776	2
70.45153	4
70.95068	12
70.96832	35
71.44997	9
71.94932	6
71.96684	8
72.45576	4
72.96506	6
72.96538	17
73.02849	1
73.97847	23
74.97695	3
75.97546	8
81.03357	1
81.07	1
81.93718	4
82.07768	2
82.96822	12
83.93423	3
84.96548	4
87.0442	2
88.45274	22
89.45142	22
90.00999	9
90.44977	7
91.46283	10
92.06218	2
92.46144	10
93.93734	17
94.96849	58
95.08556	3
95.93419	15
95.97175	3
96.02072	4
96.09348	2
96.96545	19
96.98413	23
97.10135	2
97.94098	4
98.98089	8
99.98508	22
100.00573	11
101.98204	8
102.00098	9
103.99776	3
104.0621	1
105.93729	100
106.02576	10
106.4388	4
106.93589	92
106.96825	167
107.04932	2
107.43736	5
107.93424	69
107.9718	13
108.93288	9
108.94729	43
108.9653	64
109.93131	5
109.94585	40
109.96874	4
110.94439	28
110.97451	5
111.11674	2
111.94295	3
112.98855	76
114.98548	26
116.90608	5
117.93722	144
118.90309	5
118.94067	5
119.93438	99
120.93774	5
121.93131	16
121.95048	62
122.96321	3
123.42149	5
123.94791	39
123.97124	12
124.42036	7
125.41872	5
125.94466	7
129.93735	55
129.99141	6
130.07782	3
131.08562	1
131.93427	40
133.0136	5
133.9314	6
134.95415	23
134.97418	10
136.95128	13
136.97148	3
138.94817	2
140.90599	139
140.99466	5
141.40778	6
141.90457	188
141.9372	803
142.40616	12
142.9032	198
142.94035	54
143.40469	9
143.90178	62
143.91618	52
143.9342	516
144.4034	3
144.90013	28
144.91463	73
144.93762	33
145.91312	76
145.93111	81
146.91193	25
146.93869	7
146.954	4
147.91038	10
147.95723	305
148.95085	3
149.09633	2
149.95444	192
151.9516	29
152.90605	12
154.90314	12
156.90013	3
156.91965	4
158.91656	4
164.90602	32
166.9032	29
168.90027	9
169.92287	12
171.91957	12
173.91673	3
176.90587	256
177.90962	16
178.90334	252
179.9068	16
180.90019	82
181.90334	5
182.89697	9
182.92612	98
184.9234	97
186.92001	31
187.87474	18
188.91707	3
189.87178	23
191.00076	4
191.86847	12
191.88863	6
193.05016	2
193.86607	3
193.88571	8
195.88231	4
207.03207	11
208.03152	1
211.87486	210
212.87804	13
213.87176	269
214.87488	17
215.86897	127
216.87256	8
217.86578	24
217.89511	72
219.8922	91
221.88927	40
223.88568	8
227.86937	4
229.867	5
234.84407	4
235.88667	2
236.84132	5
238.83842	4
241.85803	3
243.96204	1
246.84427	143
247.84647	7
248.84096	230
249.84349	12
250.83846	150
251.84047	8
252.83536	47
252.8644	52
253.83836	3
254.83211	7
254.86049	86
255.86903	1
256.85812	57
258.85492	20
266.99933	1
274.84946	11
276.84711	20
278.84451	13
280.84168	4
280.86948	5
281.05136	2
281.81287	516
282.81601	33
282.86679	9
283.81012	999
283.82819	4
284.81357	64
284.86392	4
285.80679	786
286.81039	50
286.82996	3
287.80362	340
287.83246	203
288.80725	21
288.82678	6
289.80158	85
289.82932	393
290.80362	4
290.82361	5
291.79773	10
291.827	304
292.8208	2
293.82379	129
295.8205	29
297.81848	4
