Mass spectrum: 1,2,3,4-Tetrachloronaphthalene; GC-EI-FT; MS; Positive; CE: 35
Name: 1,2,3,4-Tetrachloronaphthalene
Name: Naphthalene, 1,2,3,4-tetrachloro-
Class: Non-Natural Product; Industrial Chemical
Formula: C10H4Cl4
Exact mass: 263.9067
SMILES: C1=CC=C2C(=C1)C(=C(C(=C2Cl)Cl)Cl)Cl
InChI: InChI=1S/C10H4Cl4/c11-7-5-3-1-2-4-6(5)8(12)10(14)9(7)13/h1-4H
Instrument: Trace 1310 GC, Thermo Scientific; Q Exactive Orbitrap, Thermo Scientific
Instrument type: GC-EI-FT
Ms type: MS
Ion mode: POSITIVE
Collision energy: 35 eV
Retention time: 14.5
Base peak: 265.9033
m/z	relative intensity
107.97623	34
109.10131	2
113.96461	15
115.05434	2
121.00736	27
122.0152	117
123.023	169
124.03086	138
132.95142	72
133.94992	31
135.1169	4
139.05424	3
141.06995	5
142.07779	2
145.06488	1
152.0621	2
156.98401	24
157.99181	92
158.99962	281
159.98885	33
160.99666	77
165.06993	6
176.06204	1
189.06986	3
191.00101	5
192.96063	46
193.96841	808
194.97185	92
195.96548	527
196.96889	54
198.96606	8
207.03235	21
208.07303	4
216.93727	18
218.93448	15
227.92952	50
230.93452	135
232.93156	40
256.9436	48
258.94067	41
263.90625	754
265.90326	999
267.90042	482
