Mass spectrum: Bis(diphenylmethyl) ether; GC-EI-FT; MS; Positive
Name: Bis(diphenylmethyl) ether
Name: [benzhydryloxy(phenyl)methyl]benzene
Class: Non-Natural Product
Formula: C26H22O
Exact mass: 350.16707
SMILES: C1=CC=C(C=C1)C(C2=CC=CC=C2)OC(C3=CC=CC=C3)C4=CC=CC=C4
InChI: InChI=1S/C26H22O/c1-5-13-21(14-6-1)25(22-15-7-2-8-16-22)27-26(23-17-9-3-10-18-23)24-19-11-4-12-20-24/h1-20,25-26H
Instrument: Trace 1310 GC, Thermo Scientific; Q Exactive Orbitrap, Thermo Scientific
Instrument type: GC-EI-FT
Ms type: MS
Ion mode: POSITIVE
Retention time: 11.62
Base peak: 167.0855
m/z	relative intensity
65.03863	2
73.04688	3
76.03082	10
77.03861	109
79.05429	4
82.53471	15
86.01514	4
89.03862	11
91.0543	14
96.00423	3
96.99387	3
98.01518	4
102.96668	2
105.03355	245
113.03861	4
115.05432	35
118.99802	1
126.0465	6
127.05427	4
133.01366	6
139.05432	22
141.06995	15
146.93852	2
151.05429	33
152.06207	400
153.06992	188
154.07776	43
155.08557	55
164.06204	45
165.06987	655
166.07771	216
167.08551	999
168.09334	601
169.09676	71
178.96469	1
181.0648	16
183.08043	598
184.08383	82
192.98038	4
272.11981	2
