Mass spectrum: 7:3-FTI-iso; GC-EI-FT; MS; Positive
Name: 7:3-FTI-iso
Name: 2-Iodo-1H,1H,1H,2H,3H,3H-perfluorodecane
Class: Non-Natural Product; Perfluorinated compound; Iodoalkanes
Formula: C10H6F15I
Exact mass: 537.92747
SMILES: CC(CC(C(C(C(C(C(C(F)(F)F)(F)F)(F)F)(F)F)(F)F)(F)F)(F)F)I
InChI: InChI=1S/C10H6F15I/c1-3(26)2-4(11,12)5(13,14)6(15,16)7(17,18)8(19,20)9(21,22)10(23,24)25/h3H,2H2,1H3
Instrument: Thermo Scientific Q Exactive GC Hybrid Quadrupol-Orbitrap
Instrument type: GC-EI-FT
Ms type: MS
Ion mode: POSITIVE
Base peak: 91.03542
m/z	relative intensity
50.01515	7
51.00412	38
51.02297	29
52.02632	5
53.03863	32
54.04199	2
57.01353	18
59.02918	47
60.03705	4
61.04483	3
63.02295	2
64.01194	48
65.01972	182
66.02312	4
66.99902	2
68.99093	2
68.99467	561
69.01353	3
69.99806	8
70.02137	7
71.02914	301
72.03699	41
73.04484	49
73.99632	2
74.04821	2
74.98772	2
75.00412	52
76.01193	6
77.01971	336
77.0386	6
77.98468	1
78.02313	21
79.03542	3
80.99471	3
81.01353	4
82.00253	3
83.01032	11
83.02917	37
84.03703	6
87.00419	2
88.01196	15
89.01975	73
89.03976	2
90.02762	55
91.01965	2
91.03542	999
91.0543	3
92.03879	51
92.99474	59
93.05111	5
94.00259	5
95.01032	220
95.02923	2
96.01373	8
96.98967	36
97.02605	11
99.00416	5
99.99308	157
100.01197	1
100.99651	6
101.01978	134
102.02763	57
103.03545	39
104.03879	2
106.00255	5
107.01035	9
108.0182	10
109.02603	48
110.02942	2
111.00525	4
111.99311	11
113.0009	100
113.0198	3
114.00427	3
114.02766	5
115.01659	17
115.03545	2
116.99583	13
118.99146	228
119.01038	36
119.99487	5
120.01818	17
121.02598	102
122.0338	91
123.03718	10
123.99313	6
125.00096	2
125.02094	2
126.00873	16
126.90389	654
127.01656	71
127.91174	119
128.01994	3
128.91963	4
129.03223	2
130.99144	526
131.99487	17
132.01817	31
133.00714	37
133.02599	59
134.02939	4
137.00092	21
138.0087	3
139.01656	31
139.91188	1
140.0244	11
140.91956	81
141.02589	29
142.02931	1
142.9915	14
143.99927	4
145.00711	71
145.02596	4
146.01044	2
146.98647	2
147.02278	7
149.98988	4
150.00874	6
151.01654	24
151.91185	2
152.02435	47
152.91957	20
153.03218	16
153.92743	6
154.93512	767
154.99147	2
155.93857	15
157.00713	26
158.01039	2
158.91014	17
159.02275	17
161.98984	13
162.99765	31
163.01651	27
164.00095	1
164.01993	3
166.93521	6
167.94284	2
167.99928	2
168.95079	152
168.98824	45
169.00708	14
169.95419	5
169.99161	1
170.01489	10
171.02274	7
172.03059	7
172.92578	47
174.99766	17
176.00551	3
176.90073	8
177.01334	6
180.9882	78
181.00705	6
181.99158	4
182.01486	9
183.02275	12
184.02609	1
184.92577	2
186.99768	9
188.00555	2
189.01331	6
190.91632	4
192.98825	4
195.00389	26
196.00729	1
198.9977	1
200.00551	2
201.01329	9
202.02115	10
202.91634	15
203.02888	2
204.98828	2
207.00391	20
208.00723	1
212.99448	20
213.01331	9
216.93211	1
218.94772	2
219.00394	11
220.01184	1
224.99451	16
225.998	1
227.01013	2
230.98514	24
231.00398	7
231.98837	1
232.01183	5
233.01956	2
236.99454	26
237.99783	2
239.01021	4
242.98514	10
245.00082	15
246.00407	1
251.01021	5
252.01788	1
254.98523	1
257.00082	18
258.00418	1
262.99145	17
263.01038	3
269.00095	1
274.99149	17
277.00714	4
280.98196	22
281.00085	5
281.05121	2
281.98535	2
283.01636	1
286.99142	4
294.9975	13
301.00699	7
306.99759	8
309.01321	2
312.98788	4
321.013	4
324.98813	5
327.00372	21
328.00699	2
330.99741	2
339.00382	2
344.99417	182
345.99759	15
351.00382	5
362.98477	3
371.00992	17
372.01825	2
391.01602	303
392.01956	33
393.02301	1
411.02234	158
412.02582	16
