Mass spectrum: bis(2-Butoxyethyl)phthalate; GC-EI-FT; MS; Positive
Name: bis(2-Butoxyethyl)phthalate
Name: bis(2-butoxyethyl) benzene-1,2-dicarboxylate
Class: Non-Natural Product; Phthalate
Formula: C20H30O6
Exact mass: 366.20424
SMILES: CCCCOCCOC(=O)C1=CC=CC=C1C(=O)OCCOCCCC
InChI: InChI=1S/C20H30O6/c1-3-5-11-23-13-15-25-19(21)17-9-7-8-10-18(17)20(22)26-16-14-24-12-6-4-2/h7-10H,3-6,11-16H2,1-2H3
Instrument: Thermo Scientific Q Exactive GC Hybrid Quadrupol-Orbitrap
Instrument type: GC-EI-FT
Ms type: MS
Ion mode: POSITIVE
Base peak: 149.0235
m/z	relative intensity
53.03862	4
55.01783	1
55.05434	18
56.0621	6
70.07319	3
73.02851	7
77.03862	14
79.05427	9
81.06991	7
83.04927	2
83.08549	4
84.09346	2
85.10131	8
86.10462	2
89.0386	3
92.02579	2
92.06207	7
93.03355	21
98.07262	6
101.05975	2
103.01793	1
105.07003	8
109.10146	2
111.04407	3
111.11695	3
118.04131	2
119.08546	6
123.04402	17
123.1169	1
124.04756	1
128.0623	5
129.09076	2
131.04935	2
131.0854	3
133.02834	7
133.1012	1
134.03653	1
136.05199	6
141.07008	3
146.03601	4
147.04355	4
147.11652	1
148.54704	5
148.92145	3
148.95119	5
149.02345	999
149.05516	17
149.12305	7
149.50183	2
150.02675	365
151.02734	33
152.03059	3
155.0861	4
159.07999	4
159.11659	6
165.0179	2
165.06995	7
177.05045	4
189.06964	3
191.00081	1
234.1201	7
251.12766	24
252.1311	8
