Mass spectrum: a-HCH; GC-EI-FT; MS; Positive
Name: a-HCH
Name: alpha-hexachlorocyclohexane
Class: Non-Natural Product
Formula: C6H6Cl6
Exact mass: 287.86007
SMILES: C1(C(C(C(C(C1Cl)Cl)Cl)Cl)Cl)Cl
InChI: InChI=1S/C6H6Cl6/c7-1-2(8)4(10)6(12)5(11)3(1)9/h1-6H
Instrument: Trace 1310 GC, Thermo Scientific; Q Exactive Orbitrap, Thermo Scientific
Instrument type: GC-EI-FT
Ms type: MS
Ion mode: POSITIVE
Retention time: 10.36018
Base peak: 165.0698
m/z	relative intensity
55.05426	13
69.06992	68
70.07777	26
73.02846	25
75.02299	71
77.0386	8
78.04646	32
82.07775	4
83.08555	67
89.03861	1
92.06211	1
95.08558	10
96.0934	15
97.10126	79
98.07269	7
109.10126	23
110.95774	149
111.11689	57
120.9607	78
123.11688	25
134.1091	2
135.11688	5
139.00578	101
143.08559	11
146.97633	220
147.96552	145
151.02416	4
163.14815	5
165.06984	26
174.96384	106
178.98688	2
180.93727	999
181.94054	52
183.93768	45
195.117	8
205.19505	4
209.01166	9
216.91406	235
218.9111	292
229.21628	38
