Mass spectrum: PBDE-28; GC-EI-FT; MS; Positive; CE: 35
Name: PBDE-28
Name: 2,4,4-Tribromodiphenyl ether
Class: Non-Natural Product; Brominated Flame Retardant
Formula: C12H7Br3O
Exact mass: 403.8047
SMILES: C1=CC(=CC=C1OC2=C(C=C(C=C2)Br)Br)Br
InChI: InChI=1S/C12H7Br3O/c13-8-1-4-10(5-2-8)16-12-6-3-9(14)7-11(12)15/h1-7H
Instrument: Trace 1310 GC, Thermo Scientific; Q Exactive Orbitrap, Thermo Scientific
Instrument type: GC-EI-FT
Ms type: MS
Ion mode: POSITIVE
Collision energy: 35
Retention time: 19.57977
Base peak: 150.0913
m/z	relative intensity
102.96687	2
105.03357	1
106.04162	2
107.04916	4
108.05728	5
114.00075	4
115.0032	6
115.92577	1
118.03758	7
118.99799	1
119.04535	17
119.94377	31
120.05314	26
121.06512	14
121.94166	33
122.06896	76
122.98356	2
123.07657	8
123.11678	2
123.98257	1
124.0845	2
124.48427	4
126.04666	2
128.50203	15
129.0038	120
129.50108	10
130.00279	125
130.07762	1
131.93898	7
132.08876	2
132.94694	10
133.93704	7
134.94473	9
135.04411	2
136.05196	2
137.03847	1
141.06981	1
141.94113	2
142.07784	6
143.08571	2
143.95261	2
144.05701	1
144.08061	1
145.06491	2
145.10133	2
145.95041	16
146.07253	1
146.95816	23
147.06564	11
147.08058	13
147.9484	17
147.9658	74
148.07548	110
148.95606	21
149.08347	226
149.96367	79
150.09134	999
151.09915	8
152.06209	3
152.08322	1
153.0699	2
154.94904	10
156.09355	2
156.94694	9
158.95352	21
159.08049	2
159.96127	39
160.08833	1
160.95166	21
160.96921	40
161.95918	45
162.9669	33
163.0755	2
166.07356	1
166.07758	2
167.04898	4
168.46288	2
169.06001	12
169.46184	8
169.93637	2
170.46074	3
171.84692	5
171.93394	2
172.95918	3
173.84502	12
173.94995	10
175.84348	4
175.95619	35
176.06178	2
176.96405	12
176.98529	3
177.95407	33
177.97192	6
178.07773	14
178.96486	2
179.08957	54
179.97003	6
180.09708	77
181.06473	2
185.13266	1
188.97548	52
190.9731	50
191.00067	11
191.95698	2
192.98035	4
193.10127	1
194.96289	3
196.05901	10
197.85384	4
199.85239	9
199.97905	4
200.10432	2
200.98685	6
201.97684	5
201.99533	7
202.07776	2
202.98505	5
203.99301	9
206.092	8
207.09592	77
208.07266	2
209.08064	2
215.08542	2
216.96503	2
217.97333	2
220.85956	2
223.86063	3
224.8725	1
225.8766	60
226.87106	6
226.99858	3
227.87395	132
228.0014	44
228.99591	3
229.00972	9
229.87251	65
229.99972	42
230.01755	5
231.00742	9
232.01506	3
240.87785	2
245.96201	2
245.96718	20
246.97121	10
247.96573	22
248.96837	14
249.97182	1
250.85242	2
254.8747	15
255.88217	8
256.00082	7
256.87222	24
257.00406	99
257.88074	14
258.00757	912
258.8707	14
259.0025	104
259.8782	6
260.00531	894
266.88577	5
268.88324	12
270.88232	6
274.87149	1
279.90567	3
281.05151	2
307.92737	22
308.92288	5
309.92627	40
311.92453	20
326.9657	2
327.03394	2
335.91724	11
336.91248	3
337.91562	19
337.93372	17
338.92767	4
339.91504	10
339.93127	39
341.01886	3
341.92944	16
403.80331	11
404.80707	1
406.80527	11
408.80301	4
409.79828	5
410.80167	1
414.84204	21
415.10745	1
415.84412	187
416.84015	63
417.84228	555
418.83646	64
419.84112	534
420.8352	21
421.8381	172
