Mass spectrum: D5-Ph; GC-EI-FT; MS; Positive
Name: D5-Ph
Name: 2,2,4,4,6,6,8,8,10-nonamethyl-10-phenyl-1,3,5,7,9,2,4,6,8,10-pentaoxapentasilecane
Class: Non-Natural Product; Siloxane
Formula: C15H32O5Si5
Exact mass: 432.10961
SMILES: C[Si]1(O[Si](O[Si](O[Si](O[Si](O1)(C)C)(C)C2=CC=CC=C2)(C)C)(C)C)C
InChI: InChI=1S/C15H32O5Si5/c1-21(2)16-22(3,4)18-24(7,8)20-25(9,19-23(5,6)17-21)15-13-11-10-12-14-15/h10-14H,1-9H3
Instrument: Thermo Scientific Q Exactive GC Hybrid Quadrupol-Orbitrap
Instrument type: GC-EI-FT
Ms type: MS
Ion mode: POSITIVE
Base peak: 135.0623
m/z	relative intensity
52.98418	4
59.03114	3
73.04675	104
74.04635	11
76.02562	17
91.05422	19
93.01553	5
102.96661	6
104.94589	4
107.03114	21
109.0468	5
117.01547	2
119.03117	4
121.04677	18
125.98751	10
131.03111	4
132.92276	7
134.99274	11
135.06233	999
136.06569	141
137.05924	43
146.93835	14
147.90984	2
149.07802	7
153.00322	2
156.99527	3
162.93321	8
164.94888	9
178.96451	12
180.94379	4
191.00085	5
192.98015	21
210.99069	5
222.93632	9
236.952	7
248.98839	6
253.0166	4
254.96256	2
265.0199	1
266.99893	89
269.99548	3
323.00711	3
327.03506	1
347.02508	1
385.02261	2
