Mass spectrum: D5-Ph2; GC-EI-FT; MS; Positive
Name: D5-Ph2
Name: 2,2,4,4,6,6,8,8-Octamethyl-10,10-diphenyl-1,3,5,7,9,2,4,6,8,10-pentaoxapentasilecane
Class: Non-Natural Product; Siloxane
Formula: C20H34O5Si5
Exact mass: 494.12526
SMILES: C[Si]1(O[Si](O[Si](O[Si](O[Si](O1)(C)C)(C2=CC=CC=C2)C3=CC=CC=C3)(C)C)(C)C)C
InChI: InChI=1S/C20H34O5Si5/c1-26(2)21-27(3,4)23-29(7,8)25-30(24-28(5,6)22-26,19-15-11-9-12-16-19)20-17-13-10-14-18-20/h9-18H,1-8H3
Instrument: Thermo Scientific Q Exactive GC Hybrid Quadrupol-Orbitrap
Instrument type: GC-EI-FT
Ms type: MS
Ion mode: POSITIVE
Base peak: 135.0623
m/z	relative intensity
52.98418	6
59.03113	1
63.02291	1
66.99983	1
69.06985	1
73.04677	70
74.04635	7
75.02604	134
76.02563	12
81.06989	1
87.94314	2
88.95093	3
91.05422	21
93.01553	8
95.03115	1
102.96661	6
105.0155	22
107.03112	34
109.04681	8
117.01546	4
119.03115	13
120.03898	6
121.04676	20
125.9875	5
129.01544	3
131.03111	5
133.04674	11
134.99277	8
135.06227	999
136.0657	140
137.05922	40
139.05421	2
143.03108	1
145.04672	3
146.93835	11
147.93791	2
148.91765	6
149.07803	6
152.06195	7
153.06976	9
154.07758	11
156.99525	8
162.93323	7
164.0619	1
164.94888	6
166.00053	4
167.03104	2
176.9854	2
178.96449	11
180.0388	4
181.0466	6
183.06232	2
191.00085	3
192.98013	21
193.97974	4
195.06226	15
196.06566	2
197.07777	350
198.08122	67
199.07477	17
205.01654	2
213.07282	2
222.93632	10
234.97275	1
236.95198	6
248.9884	4
250.96764	25
253.01656	6
254.9958	3
266.99899	25
311.00381	2
329.01437	47
417.08527	2
