Mass spectrum: Trixylylphosphate; GC-EI-FT; MS; Positive
Name: Trixylylphosphate
Name: tris(2,4-dimethylphenyl) phosphate
Class: Non-Natural Product; Organophosphate
Formula: C24H27O4P
Exact mass: 410.16470
SMILES: CC1=CC(=C(C=C1)OP(=O)(OC2=C(C=C(C=C2)C)C)OC3=C(C=C(C=C3)C)C)C
InChI: InChI=1S/C24H27O4P/c1-16-7-10-22(19(4)13-16)26-29(25,27-23-11-8-17(2)14-20(23)5)28-24-12-9-18(3)15-21(24)6/h7-15H,1-6H3
Instrument: Thermo Scientific Q Exactive GC Hybrid Quadrupol-Orbitrap
Instrument type: GC-EI-FT
Ms type: MS
Ion mode: POSITIVE
Base peak: 193.1011
m/z	relative intensity
51.02305	3
53.0387	2
54.04647	5
56.06218	8
57.03356	2
59.03122	3
60.02071	2
63.023	3
65.03867	28
67.05432	37
69.03355	1
69.06988	49
71.08559	14
73.0469	10
74.03623	18
77.03857	113
78.04655	69
80.06211	5
85.02843	11
86.03628	4
86.10461	2
87.04409	26
88.05197	8
89.0205	7
89.0386	9
89.05978	5
91.05443	104
93.0701	53
95.04936	9
97.06505	9
99.04433	20
99.08058	8
103.05439	101
104.06226	17
105.06999	168
106.0414	16
107.04921	61
107.08575	25
108.05699	7
109.06502	8
110.03641	3
110.07271	3
111.08049	22
112.0885	3
113.03838	3
113.0387	7
113.05968	10
115.0545	36
117.01863	4
117.06994	199
118.07777	44
119.04923	15
120.05698	5
121.01364	10
121.06509	430
121.10122	13
122.03639	2
122.07259	174
122.10908	2
123.04431	10
124.05186	4
124.12494	21
125.02337	3
125.05977	2
125.09618	8
126.04615	4
126.04653	8
128.06218	11
129.06949	131
129.06987	10
131.08585	36
132.09364	24
133.01384	13
133.10117	2
134.10901	9
135.04411	11
135.06265	9
135.08069	28
136.05183	13
137.00874	1
137.09613	10
138.14066	5
139.05392	18
139.05435	9
139.07556	10
141.06978	26
142.07735	24
143.08565	2
146.07295	9
146.10886	3
147.0657	15
147.11696	9
147.93825	7
148.1248	17
149.13277	4
150.14072	8
151.02431	8
152.02385	1
152.06209	21
152.08322	11
152.11946	5
152.15622	8
153.02113	4
154.07803	13
155.0852	8
155.08572	21
155.10704	3
156.06369	11
156.09355	18
157.12222	4
158.0725	8
159.04442	5
159.11711	10
161.09645	3
162.14015	9
162.96992	2
163.05426	4
164.0618	9
165.07016	3
165.16415	1
166.01785	16
166.1718	5
167.0258	30
167.08548	7
168.09325	23
169.1012	17
170.0967	5
171.1382	2
173.09599	4
173.13258	13
174.1402	11
175.0751	3
175.97736	11
176.06204	14
176.15611	6
176.98529	13
177.06973	10
178.07768	176
178.98221	6
179.00099	11
179.08571	64
180.04196	1
181.10001	2
181.10132	12
182.07254	10
182.1088	16
183.0209	58
183.08076	3
183.11656	7
184.02826	73
184.12488	5
185.02657	7
185.09535	2
185.09604	10
185.13264	7
185.1537	3
186.09966	6
187.14835	4
188.10431	7
188.15555	3
189.06953	20
190.07753	24
191.00134	30
191.08566	133
191.17944	2
192.00037	7
192.09334	276
192.18703	5
192.99809	3
193.1011	999
193.19548	2
194.10446	245
195.08052	26
195.11711	3
196.12444	7
197.03638	13
197.09651	7
197.13216	10
199.01576	45
199.09638	5
199.14833	7
199.16951	6
201.03119	14
202.07753	8
203.04712	26
203.17923	3
204.09314	8
204.11426	3
205.0173	4
205.10127	17
206.10931	35
207.11673	101
208.03641	15
208.12514	88
209.09596	55
209.13255	546
209.1902	4
210.01077	5
210.02898	8
210.10414	26
210.13594	81
211.11214	7
212.08353	13
213.03064	1
215.17944	3
216.09375	9
219.11713	4
221.08429	3
221.1328	6
222.0889	6
222.14043	1
223.1122	34
225.12701	32
225.12791	55
227.12802	2
227.17947	7
230.10931	9
231.21104	7
233.13243	2
234.97345	8
235.20656	4
236.21358	1
247.24223	7
248.98836	2
250.98582	8
252.09358	4
255.12266	4
255.21018	5
260.24957	1
264.24496	3
266.01974	7
267.11639	7
267.99838	2
281.05142	27
282.05051	12
283.04514	14
284.04773	8
287.08304	3
289.09842	33
290.10226	10
295.1037	4
301.05823	3
303.07843	6
305.09332	207
306.0968	48
341.01828	2
342.01776	6
355.07095	9
356.07123	10
365.26968	3
368.34439	4
393.29956	5
395.13937	5
395.3165	2
410.1637	78
411.16824	38
