Mass spectrum: PCB-66; GC-EI-FT; MS; Positive
Name: PCB-66
Name: 2,3',4,4'-Tetrachlorobiphenyl
Class: Non-Natural Product; PCB
Formula: C12H6Cl4
Exact mass: 289.92236
SMILES: C1=CC(=C(C=C1C2=C(C=C(C=C2)Cl)Cl)Cl)Cl
InChI: InChI=1S/C12H6Cl4/c13-8-2-3-9(11(15)6-8)7-1-4-10(14)12(16)5-7/h1-6H
Instrument: Trace 1310 GC, Thermo Scientific; Q Exactive Orbitrap, Thermo Scientific
Instrument type: GC-EI-FT
Ms type: MS
Ion mode: POSITIVE
Retention time: 14.98185
Base peak: 291.9193
m/z	relative intensity
51.02295	2
54.03391	1
54.04647	2
54.99461	8
55.01793	4
55.0543	8
55.49463	4
56.02569	1
56.06206	29
57.03357	3
57.06987	32
58.07327	3
61.00735	11
62.01518	11
63.0229	4
63.96141	2
68.06206	3
72.47876	8
72.97806	23
73.00732	10
73.47731	4
73.51129	5
74.01518	80
74.03627	1
74.98112	2
75.02296	95
75.52469	6
76.03078	5
77.00536	2
77.03854	8
78.04651	2
78.99572	4
79.05418	4
82.07769	2
83.97617	14
83.99954	8
84.98398	21
85.00731	24
85.06477	2
85.97324	5
86.01518	33
86.98108	7
87.02306	22
88.03076	1
89.03851	2
91.49963	5
92.0034	117
92.06216	1
92.50513	19
93.00208	38
93.50372	5
95.97626	4
96.98409	24
97.00742	7
97.05231	1
97.98258	6
98.01514	85
98.07272	2
99.02303	94
100.02639	13
106.07784	2
106.51042	19
106.94506	5
107.04935	1
107.50909	5
107.97605	14
108.0932	2
108.94208	5
108.98391	49
109.00738	13
109.98266	17
109.99194	249
110.01514	26
110.04767	1
110.49359	37
110.9905	162
111.02312	27
111.49206	20
111.9887	26
112.02656	2
113.03857	12
113.96462	3
115.05432	3
117.07008	2
117.98911	3
118.9981	2
119.95268	5
119.97631	4
119.99947	10
120.09351	2
120.98412	10
121.00729	11
121.08882	1
122.01518	65
122.98111	3
122.99941	3
123.02286	112
123.11702	1
123.49107	12
124.03089	44
124.48946	7
125.03852	18
126.04634	4
126.9723	103
127.47634	40
127.97099	108
128.06197	5
128.47476	34
128.96938	37
129.07002	1
129.47324	15
131.0856	1
131.97614	9
132.92305	1
132.95143	5
132.98399	19
133.0136	4
133.99171	20
134.99954	16
135.02316	9
135.04413	1
135.98909	6
136.0074	7
136.1246	2
136.99683	6
137.03864	13
138.04626	4
139.00572	3
143.95274	3
143.99956	4
144.96053	61
144.98392	9
145.46245	7
145.959	83
146.01531	21
146.46088	10
146.95783	37
146.98647	3
146.99948	20
147.02284	40
147.9563	13
148.00746	9
148.03067	62
148.12494	1
148.99667	5
149.03867	291
150.04658	788
151.0489	16
151.0499	101
152.06223	6
156.09316	1
156.96075	4
156.98398	7
157.99173	11
158.99936	35
159.98848	4
160.00742	30
160.99674	10
162.00461	8
162.96948	1
163.00586	13
165.00247	6
167.0491	12
168.05243	1
168.96048	4
169.96864	63
170.95822	3
170.97202	5
170.99962	5
171.96558	41
173.01547	4
173.96286	7
177.04478	17
180.96027	3
181.96848	4
182.97655	3
182.99982	31
183.96552	3
184.00772	313
184.97333	2
184.99709	10
185.0152	184
186.00444	100
186.01872	32
187.01259	57
188.01997	10
191.00085	1
193.96829	32
194.97174	5
195.96547	22
197.96225	3
203.02559	26
203.92979	6
205.02275	8
205.92694	4
207.03209	17
208.03133	3
213.02156	72
214.02457	8
215.01871	22
215.08553	1
216.02138	3
217.96857	14
218.97638	21
219.96565	9
219.98404	801
220.97354	12
220.98737	95
221.98155	500
222.9843	61
223.9785	77
224.98134	9
231.94209	2
242.31787	1
242.93452	1
246.9827	6
248.97893	4
253.94579	25
254.95392	16
255.94266	26
255.96126	7
256.95029	16
257.93973	7
257.95856	6
258.94647	5
281.05154	1
289.922	771
290.9248	100
291.91925	999
291.93799	3
292.92306	124
293.91574	488
294.91882	67
295.91339	106
296.91565	13
297.90945	7
303.71219	2
