Mass spectrum: PCB-157; GC-EI-FT; MS; Positive
Name: PCB-157
Name: 2,3,3',4,4',5'-Hexachlorobiphenyl
Formula: C12H4Cl6
Exact mass: 357.84442
SMILES: C1=CC(=C(C(=C1C2=CC(=C(C(=C2)Cl)Cl)Cl)Cl)Cl)Cl
InChI: InChI=1S/C12H4Cl6/c13-7-2-1-6(10(16)12(7)18)5-3-8(14)11(17)9(15)4-5/h1-4H
Instrument: Trace 1310 GC, Thermo Scientific; Q Exactive Orbitrap, Thermo Scientific
Instrument type: GC-EI-FT
Ms type: MS
Ion mode: POSITIVE
Base peak: 359.8417
m/z	relative intensity
51.02305	8
52.03084	2
54.04644	5
54.49082	10
55.01793	3
55.0543	31
56.05767	1
56.06205	80
57.03356	11
57.06987	72
60.02059	6
61.00734	27
61.02847	3
62.01518	2
63.0229	5
63.96141	4
64.96919	1
66.02407	2
67.00735	4
68.06209	4
70.04137	5
70.07772	2
71.01276	3
71.04924	1
71.97617	14
72.05702	1
72.4743	10
72.98409	10
73.00733	63
73.04687	5
73.51125	39
73.97846	4
74.01516	55
75.02296	16
75.99396	8
76.03075	2
77.0387	24
78.04208	5
78.04649	11
78.4919	6
79.02738	10
80.03536	19
81.03358	11
81.06997	7
82.00508	3
82.0651	11
82.07766	18
83.03658	5
83.04919	1
83.97627	45
83.99944	38
84.04455	5
84.09334	4
84.98391	18
85.00729	71
85.02854	4
85.97324	17
86.01516	51
87.02302	5
88.03077	6
88.99747	4
89.95824	9
89.98663	13
90.4918	27
90.99582	33
91.02306	1
91.05431	5
91.49963	35
92.03087	23
92.49818	8
94.04151	14
94.04641	10
94.96847	6
95.08554	6
95.97626	23
96.00429	13
96.02065	2
96.08081	1
96.99384	19
97.00744	30
97.02844	5
97.10132	4
97.51966	11
98.01514	134
98.04743	2
98.10451	2
99.02294	46
100.0519	2
100.99309	14
101.03859	2
102.9667	8
104.06206	6
105.03359	10
105.04493	2
105.07009	8
106.02598	5
106.06525	1
106.07783	7
106.94498	22
107.04925	13
107.97603	100
107.99955	18
108.09328	3
108.48001	14
108.94218	12
108.98418	288
109.00736	47
109.02849	2
109.05232	1
109.06486	5
109.48568	37
109.95511	14
109.98262	187
110.01514	51
110.03625	2
110.04768	3
110.07276	4
110.10904	5
110.48422	25
110.98112	49
111.02308	15
111.04412	5
111.11704	3
111.95215	8
112.08832	2
113.03883	5
113.9963	9
114.50029	27
114.9633	7
117.0011	29
117.02956	2
117.07005	1
117.48552	8
117.98946	4
118.03767	3
118.07789	9
118.47766	3
118.94519	23
118.99114	8
118.99808	4
119.0456	12
119.08556	6
119.97632	19
119.99954	49
120.94201	12
120.98413	13
121.00734	46
121.02843	3
121.06485	3
121.08883	4
121.1013	2
122.01515	135
122.07272	2
122.95844	9
122.98112	9
123.02284	55
123.08033	1
124.01567	1
124.05199	2
124.08834	2
124.11208	1
124.1247	3
124.95564	10
125.05991	2
125.09631	3
125.96474	150
126.04626	3
126.46854	40
126.96301	140
127.05411	2
127.07563	4
127.46709	34
127.96162	42
128.06192	8
128.99648	8
129.05743	4
129.06606	8
129.06998	12
129.09142	4
130.06534	3
130.94519	27
131.0493	28
131.08556	1
131.4828	11
131.9436	10
131.9846	77
131.99956	17
132.94199	8
132.98346	69
133.01356	37
133.06516	11
133.98157	26
133.98198	8
134.01543	12
134.05998	2
134.07289	3
134.09665	3
134.10912	5
134.9697	10
134.98111	34
135.02315	12
135.08038	4
135.96187	22
136.96027	9
137.03859	8
137.95883	4
138.07892	2
138.14034	2
139.05446	4
140.98993	8
141.01099	11
141.47005	14
141.93721	12
142.01846	2
142.07794	3
142.9032	6
142.94487	44
143.0078	11
143.03622	1
143.08572	4
143.44888	8
143.9527	630
143.97638	26
143.9996	32
144.05708	1
144.09316	3
144.45456	98
144.95154	762
144.98393	31
145.00726	22
145.03967	3
145.06493	4
145.10109	10
145.45296	108
145.9131	2
145.94995	394
145.96846	6
146.01527	211
146.45177	49
146.94815	60
146.98122	8
146.99939	2
147.02281	230
147.06512	6
147.1171	8
147.45	10
147.94708	11
148.03062	230
148.91765	2
149.02356	7
149.0342	30
149.0963	2
149.4713	1
150.04662	2
150.97163	44
151.46858	26
151.97012	30
152.46709	2
153.45293	5
153.91408	14
154.01404	18
154.06534	4
154.07767	3
154.94505	12
155.08539	4
155.91118	4
155.97591	40
156.03964	5
156.09369	6
156.98396	37
157.09753	2
157.10112	3
157.92718	3
157.97299	8
157.99161	39
158.98106	9
159.06334	29
159.08063	3
159.10162	1
159.98904	15
160.07106	4
160.08846	1
160.93315	50
160.95401	3
161.07848	10
161.09602	3
161.43744	76
161.93211	93
162.4361	119
162.93033	68
163.43448	77
163.92894	24
164.43308	24
166.0777	2
166.95334	18
167.01787	7
168.96043	50
168.98819	12
169.10133	3
169.45406	6
169.94974	18
170.45311	18
170.95758	26
170.99963	18
171.08067	2
171.11664	7
172.95503	3
172.99655	3
173.09612	2
174.97208	10
175.14789	3
176.98476	2
177.98477	3
178.92192	47
179.0601	3
179.08522	4
179.92021	141
179.97598	6
180.08098	4
180.09331	5
180.42192	19
180.91844	107
180.96028	18
180.98401	33
181.10082	2
181.42038	13
181.91718	39
181.97311	4
181.99149	239
182.95731	11
182.98122	12
182.9997	302
183.11679	3
183.98892	78
184.00304	60
184.125	5
184.9968	88
185.09627	2
185.13277	1
185.43868	12
185.99966	21
186.93924	21
187.93748	19
189.99115	9
190.07762	2
191.14323	3
191.17941	4
191.9527	31
192.96089	19
192.98026	8
192.99831	2
193.02422	7
193.05012	4
193.95004	7
193.96895	11
193.97981	3
194.95787	3
195.02144	8
195.03966	2
195.08066	2
196.04791	3
196.97563	3
197.13226	3
198.14027	1
199.14775	5
201.01064	8
202.07788	2
202.92151	11
202.99445	14
203.00687	6
203.92975	69
203.98373	2
204.96056	6
205.01726	6
205.92685	69
207.03198	69
207.03438	21
207.11681	2
207.92366	25
210.99118	4
211.00609	2
213.00319	3
213.05075	2
215.8877	3
215.95264	24
216.96072	96
217.96841	752
218.95799	50
218.97174	95
219.96562	464
220.95473	9
220.9688	61
221.96275	78
222.96638	8
223.95149	4
227.92934	19
228.99992	14
229.92682	18
230.00908	13
231.0038	4
231.92314	5
234.97253	7
237.96323	3
239.17947	3
240.48111	2
240.9381	4
248.98843	2
251.92935	100
252.93814	100
253.92627	79
253.9458	17
254.93504	88
255.92403	25
255.9426	11
256.9325	27
264.97693	6
265.0199	5
265.96683	9
266.97458	8
267.98285	16
268.97229	4
274.89957	2
280.94397	7
281.05124	11
281.22723	8
282.05164	3
282.94098	10
286.89902	13
287.90695	671
288.89542	13
288.90967	87
289.90326	841
289.92197	2
290.89273	8
290.90723	116
291.90039	408
292.90396	57
292.98352	12
293.89792	76
294.901	11
294.9812	5
295.8942	6
297.93985	4
298.94296	27
301.94305	24
302.93701	17
303.70795	5
305.93713	11
321.86807	15
322.87476	28
323.86362	27
323.88263	25
324.87198	31
325.8609	15
325.88016	37
326.86874	23
327.8772	26
337.91995	2
341.01828	5
357.84433	538
358.84735	73
359.84174	999
360.84402	129
361.83746	723
362.84061	99
363.83481	302
364.83868	23
365.83173	74
366.83484	8
367.82858	7
372.87573	5
