Mass spectrum: PCB-138; GC-EI-FT; MS; Positive
Name: PCB-138
Name: 2,2',3,4,4',5'-Hexachlorobiphenyl
Class: Non-Natural Product; PCB
Formula: C12H4Cl6
Exact mass: 357.84442
SMILES: C1=CC(=C(C(=C1C2=CC(=C(C=C2Cl)Cl)Cl)Cl)Cl)Cl
InChI: InChI=1S/C12H4Cl6/c13-7-2-1-5(11(17)12(7)18)6-3-9(15)10(16)4-8(6)14/h1-4H
Instrument: Thermo Scientific Q Exactive GC Hybrid Quadrupol-Orbitrap
Instrument type: GC-EI-FT
Ms type: MS
Ion mode: POSITIVE
Retention time: 19.1447
Base peak: 289.9033
m/z	relative intensity
51.02297	3
53.0386	8
54.49084	5
55.01793	13
55.05431	22
56.06206	50
57.06988	28
58.04136	1
60.0206	4
61.00736	29
62.0152	6
63.02302	2
67.03195	5
68.02577	8
68.06206	9
69.03354	3
69.0574	1
71.04924	3
71.97504	13
72.05704	3
72.47414	12
72.98412	9
73.00736	65
73.51129	29
74.01519	77
74.98498	4
75.02293	10
75.48422	12
75.99416	7
76.03076	6
78.04651	10
78.49173	8
79.53149	9
80.04958	7
80.06206	10
81.03356	22
81.04318	8
82.06512	2
82.07768	3
83.04919	6
83.97613	30
83.99947	26
84.05692	5
84.98398	16
85.00729	79
85.02856	2
85.97327	11
86.01518	55
87.02309	17
87.04417	2
89.95849	5
90.45762	9
90.49169	34
90.99563	21
91.49966	21
91.99418	12
93.06998	2
94.04129	8
94.06526	1
94.07771	2
95.97628	19
96.51187	9
96.98408	24
97.01589	47
97.05234	3
98.01516	158
99.02303	44
101.05988	1
102.96672	7
103.05423	1
104.04958	3
106.94496	28
107.04927	7
107.97609	91
107.99957	10
108.05705	2
108.09326	8
108.48	33
108.94199	23
108.98389	316
109.00741	63
109.48567	36
109.98264	178
110.01514	50
110.03625	3
110.09667	3
110.48425	21
110.98106	33
111.02316	18
111.04412	2
114.04664	1
114.96299	7
115.0543	13
115.49873	4
116.00264	12
116.06198	6
117.00109	1
117.93723	10
118.07346	5
118.07788	9
118.94521	18
118.99776	12
118.99812	4
119.9344	3
119.97635	21
119.99958	55
120.05718	2
120.0808	1
120.09341	2
120.98416	19
121.00729	45
121.02846	5
121.10134	3
122.01517	151
122.98116	3
123.00787	6
123.02281	55
125.96438	104
126.46857	30
126.96304	132
127.46712	26
127.96172	52
128.06195	7
129.06999	8
130.03313	7
130.06529	2
130.94519	27
131.08557	6
131.98466	100
131.99977	10
132.0486	22
132.08073	4
132.94202	19
132.98341	69
133.0136	22
133.10127	3
133.97336	26
134.01504	7
134.07248	2
134.97015	12
134.98106	34
135.01056	3
135.02318	12
135.11705	6
135.9619	12
136.08835	1
137.03862	26
137.07091	3
137.09631	6
137.95886	4
140.47171	16
141.47008	14
141.494	10
141.93724	11
142.01895	7
142.07347	3
142.07799	3
142.94487	32
143.95273	654
143.97642	11
143.99957	29
144.45453	63
144.95157	785
144.98398	24
145.00732	29
145.453	93
145.94998	407
145.96849	7
146.01527	219
146.45131	52
146.94821	93
146.98126	10
146.99991	8
147.02281	234
147.08029	1
147.4904	7
147.94713	16
147.95726	8
148.03064	237
148.91769	3
148.96487	4
149.02353	8
149.0343	37
149.09633	2
149.47134	6
150.46999	5
150.97165	30
151.0544	2
151.97015	64
153.00658	6
154.0777	6
154.9451	9
155.0854	3
155.91069	9
155.97592	40
156.0932	2
156.98392	50
157.12241	2
157.97357	8
157.99161	47
158.05559	11
158.96658	2
158.98111	9
158.99509	10
159.0634	5
159.11671	3
159.98908	14
160.93321	51
161.05986	2
161.13284	5
161.43742	37
161.93213	71
162.06776	2
162.43608	123
162.93036	47
162.96953	7
163.14833	6
163.43454	64
163.92897	16
164.06198	3
164.43312	19
166.07774	4
166.45227	2
166.95314	27
167.08554	3
167.45709	2
167.95171	18
167.97594	2
168.05307	3
168.08932	2
168.45587	13
168.94992	2
168.9605	15
169.0649	3
169.94966	7
170.95769	19
170.99968	13
175.14803	2
177.97717	7
178.92192	81
179.00101	5
179.9202	107
179.96436	3
180.02074	4
180.42171	19
180.91846	118
180.96094	18
180.98384	24
181.10152	3
181.42042	9
181.91702	55
181.99152	252
182.41931	7
182.95801	13
182.98126	13
182.99972	277
183.98892	78
184.00308	52
184.94156	8
184.99689	86
185.09631	3
185.43872	1
185.99971	12
187.93773	6
189.06976	4
191.95296	27
191.98782	3
191.99995	2
192.96095	22
192.99764	4
193.02426	33
193.95015	14
193.96899	6
194.03198	17
194.95793	5
194.99596	3
195.03967	7
195.11726	2
196.04796	9
197.03714	11
197.13231	3
197.97502	2
199.03096	1
201.00992	10
202.07793	2
202.92156	13
203.08533	4
203.92981	52
204.91888	17
204.9606	8
205.92688	51
207.03201	83
207.92387	11
208.03126	8
209.01172	2
209.02968	10
211.00613	7
212.0836	2
215.95245	18
216.96078	96
217.96846	760
218.95798	43
218.97177	75
219.96564	500
220.96881	48
221.96284	77
222.96555	6
226.04199	2
227.02255	6
227.92928	21
229.92688	15
229.99051	3
230.00911	38
230.99811	1
232.00557	7
234.97162	8
237.8904	14
239.88785	14
249.91145	4
251.92943	86
252.93784	95
253.92628	91
254.93507	93
255.92398	21
255.94376	11
256.9325	30
263.88806	8
263.96936	11
264.9646	8
264.97711	3
265.96716	4
265.98605	7
266.97455	13
273.92136	3
280.94403	15
281.05142	12
282.94107	11
283.04837	2
287.9057	782
288.89548	12
288.90964	92
289.90332	999
290.90192	6
290.90726	119
291.90048	505
292.90399	54
293.89789	109
294.90109	8
295.89426	4
297.93024	3
299.94669	19
300.94076	9
302.93753	6
303.70804	4
303.94092	9
322.87451	203
323.87958	26
324.87186	282
325.87555	27
326.86874	193
327.87335	23
328.86645	55
329.87228	6
331.86682	2
338.90888	13
339.91751	8
357.84439	387
358.84729	46
359.8418	711
360.84402	79
361.83752	582
362.8407	54
363.83487	232
364.83859	19
365.83185	47
367.82867	5
370.87839	10
372.87537	5
374.87195	1
375.87485	15
