Mass spectrum: PCB-141; GC-EI-FT; MS; Positive
Name: PCB-141
Name: 2,2',3,4,5,5'-Hexachlorobiphenyl
Class: Non-Natural Product; PCB
Formula: C12H4Cl6
Exact mass: 357.84442
SMILES: C1=CC(=C(C=C1Cl)C2=CC(=C(C(=C2Cl)Cl)Cl)Cl)Cl
InChI: InChI=1S/C12H4Cl6/c13-5-1-2-8(14)6(3-5)7-4-9(15)11(17)12(18)10(7)16/h1-4H
Instrument: Trace 1310 GC, Thermo Scientific; Q Exactive Orbitrap, Thermo Scientific
Instrument type: GC-EI-FT
Ms type: MS
Ion mode: POSITIVE
Retention time: 18.6987
Base peak: 289.9035
m/z	relative intensity
51.02297	6
53.03863	6
54.0464	1
54.49074	10
55.00734	2
55.01786	2
55.04173	2
55.05423	20
56.06208	41
57.03348	2
57.0699	49
60.02062	1
61.00729	28
62.01519	10
63.02293	3
63.96148	2
64.96925	2
68.04962	3
68.0621	1
69.04479	1
69.0699	4
71.08561	2
71.97604	11
72.47416	8
72.98396	13
73.00739	63
73.0285	5
73.51115	40
74.01522	73
74.03624	4
75.02298	25
77.03856	9
78.04195	2
78.49174	7
79.05421	14
80.0621	7
81.06982	4
82.04142	4
82.07771	3
82.94493	7
83.01289	3
83.97614	28
83.98793	4
83.99951	37
84.98399	16
85.00735	77
85.02839	5
85.97328	8
86.01523	55
86.09644	1
87.0229	17
87.04405	3
89.9585	8
90.45764	6
90.49181	22
90.99565	25
91.05437	10
91.49945	38
91.9942	11
92.05769	1
93.05746	2
93.07002	3
94.04134	2
95.47217	3
95.97635	22
96.00407	9
96.02075	1
96.0935	6
96.98416	24
97.00719	28
98.01518	145
98.98103	7
99.02305	48
100.50495	5
101.05991	1
102.04658	4
103.05428	1
104.02568	2
106.94511	19
107.47236	2
107.97613	84
107.99955	22
108.08088	2
108.09337	4
108.48006	28
108.94213	13
108.98396	304
109.00751	72
109.48579	46
109.98238	200
110.01522	61
110.09639	3
110.48423	21
110.98109	39
111.02286	19
112.11194	3
114.0313	2
114.06756	3
114.96301	9
115.00304	3
115.05436	2
117.48557	6
117.93717	19
117.98952	5
118.07347	2
118.48395	2
118.94488	9
118.96822	7
118.99783	2
119.93442	13
119.97643	27
119.99961	60
120.08085	2
120.09352	2
120.94206	4
120.98379	18
121.00742	53
121.10142	3
121.9733	8
122.01523	151
122.09634	5
123.01782	4
123.02286	58
124.03092	9
124.05204	2
125.13233	1
125.46061	2
125.96442	131
126.46859	33
126.96312	137
127.46705	31
127.96166	49
128.46545	7
129.07007	2
129.93739	3
130.94528	28
131.06029	1
131.08565	2
131.94359	11
131.97618	105
131.99939	14
132.92271	2
132.942	19
132.98396	66
133.01363	21
133.97299	37
133.99176	12
134.01506	9
134.96976	14
134.98109	21
134.9929	6
135.02321	8
135.47359	5
135.96831	15
137.03865	29
140.04953	2
140.4716	19
140.90613	13
141.06999	5
141.47006	20
141.93723	20
142.90326	10
142.94502	36
143.07303	2
143.08542	6
143.44849	9
143.93428	18
143.95281	647
143.97595	30
143.99959	34
144.08087	1
144.45467	95
144.95119	850
144.9839	29
145.0074	32
145.10115	1
145.45309	107
145.95004	419
145.96852	8
145.98744	1
146.01538	206
146.10918	2
146.45148	55
146.94829	88
146.98129	10
146.99963	16
147.0229	241
147.06528	1
147.94667	5
147.9655	2
148.0307	288
148.12453	2
149.02351	5
149.03422	44
149.045	9
151.03899	2
151.05426	1
152.9061	6
153.06555	2
154.07773	3
154.90321	5
154.94513	14
155.97603	39
156.0639	2
156.94237	6
156.98406	47
157.10126	1
157.97308	13
157.99171	43
158.96661	1
158.98111	15
160.93321	53
161.05934	2
161.43747	43
161.93172	97
162.43567	79
162.93048	66
162.96948	1
163.00586	4
163.43466	49
163.92905	21
164.43315	12
164.98508	2
165.16379	2
166.94492	22
167.95261	13
168.05312	2
168.94231	10
168.96057	11
168.98415	11
169.94969	9
169.96858	18
170.95772	4
170.99977	22
171.96567	13
173.13217	1
176.98538	4
177.16382	2
177.91415	6
178.07796	1
178.92136	79
179.42337	6
179.92035	167
179.97606	9
180.00069	2
180.422	19
180.91856	135
180.96101	14
180.98389	24
181.42044	13
181.91718	55
181.99162	206
182.41934	10
182.91556	13
182.95738	9
182.98064	8
182.99982	321
183.98901	66
184.00311	59
184.99634	102
185.99976	17
187.87488	3
189.87183	6
190.94492	6
191.00087	7
191.95288	40
192.96098	17
193.95012	26
193.96831	13
194.95796	7
195.96553	7
201.00998	19
201.91388	3
202.92162	13
203.91115	3
203.92987	21
204.91892	11
205.92632	20
207.03214	18
207.9239	4
208.03131	5
209.02892	4
213.00246	2
213.16354	1
214.92232	10
215.95252	26
216.91972	8
216.96092	86
217.94977	19
217.96857	837
218.95822	54
218.97191	98
219.96576	521
220.96896	61
221.963	80
222.96559	8
226.92166	6
227.92944	13
228.9189	5
229.92693	13
234.97166	9
237.89044	6
239.88789	8
240.9382	1
242.54596	1
251.92949	81
252.93816	96
253.92638	84
253.92963	18
254.93514	94
255.92432	28
255.9427	10
256.9314	31
261.88989	4
263.88812	5
265.88486	3
266.9993	1
280.94409	11
281.05145	1
282.9411	13
286.89783	10
287.90588	764
288.89554	12
288.90979	98
289.9035	999
290.90598	129
291.90066	499
292.90402	64
293.89822	103
294.9014	12
295.89432	8
303.71094	3
321.86667	11
322.87472	244
323.86468	18
323.87738	33
324.87204	385
325.86105	10
325.87524	53
326.86893	243
327.87237	34
328.86664	77
330.86334	11
357.84467	379
358.84781	49
359.84027	690
360.84409	85
361.83777	528
362.84091	68
363.83514	212
364.83945	28
365.83191	46
366.83502	3
367.82874	5
