Mass spectrum: D4-Ph2; GC-EI-FT; MS; Positive
Name: D4-Ph2
Name: Quadrosilan
Class: Non-Natural Product; Siloxane
Formula: C18H28O4Si4
Exact mass: 420.10647
SMILES: C[Si]1(O[Si](O[Si](O[Si](O1)(C)C2=CC=CC=C2)(C)C)(C)C3=CC=CC=C3)C
InChI: InChI=1S/C18H28O4Si4/c1-23(2)19-25(5,17-13-9-7-10-14-17)21-24(3,4)22-26(6,20-23)18-15-11-8-12-16-18/h7-16H,1-6H3
Instrument: Thermo Scientific Q Exactive GC Hybrid Quadrupol-Orbitrap
Instrument type: GC-EI-FT
Ms type: MS
Ion mode: POSITIVE
Base peak: 327.0351
m/z	relative intensity
55.05425	2
67.05423	2
71.94822	13
73.04682	24
75.02609	69
77.00533	18
77.03857	44
79.05424	44
81.06991	2
87.94316	60
88.95097	68
91.05423	263
95.08558	4
102.04646	5
104.94593	36
105.06993	25
107.0312	26
109.10122	1
111.97192	22
115.05426	20
117.01553	11
118.99794	50
120.9772	66
122.95645	12
125.98753	198
128.00165	7
129.06987	6
131.03117	24
133.01355	125
134.01314	24
134.99281	111
135.06242	134
136.06578	18
137.04173	28
139.05418	7
142.97967	10
145.0468	22
146.93835	354
147.93799	58
148.91769	55
149.04169	35
149.98752	35
150.93336	14
152.06203	25
154.07764	9
156.0056	514
156.50545	155
157.50386	27
158.9928	10
162.93327	20
162.96967	69
165.01092	213
166.00926	51
166.92821	15
174.01624	48
176.89465	8
178.96455	97
180.94382	20
181.01347	37
182.99275	10
187.01344	9
188.98528	17
191.00093	74
192.98021	157
194.99586	37
196.97511	21
203.00092	42
205.01659	142
207.03224	29
209.01149	19
210.99078	36
211.99033	7
213.07286	11
218.94139	4
222.93643	10
223.96915	10
233.9652	5
239.00099	69
240.98019	17
242.97716	1
248.98842	369
253.0166	295
254.01617	67
263.00107	3
266.99908	240
269.04816	8
271.02731	31
285.04291	16
306.97281	4
308.9884	5
311.00412	154
317.01163	2
327.03513	999
343.06653	19
345.04587	62
359.00351	2
387.03513	3
403.06622	1
