Mass spectrum: PCB-194; GC-EI-FT; MS; Positive
Name: PCB-194
Name: 2,2',3,3',4,4',5,5'-Octachlorobiphenyl
Class: Non-Natural Product; PCB
Formula: C12H2Cl8
Exact mass: 425.76647
SMILES: C1=C(C(=C(C(=C1Cl)Cl)Cl)Cl)C2=CC(=C(C(=C2Cl)Cl)Cl)Cl
InChI: InChI=1S/C12H2Cl8/c13-5-1-3(7(15)11(19)9(5)17)4-2-6(14)10(18)12(20)8(4)16/h1-2H
Instrument: Trace 1310 GC, Thermo Scientific; Q Exactive Orbitrap, Thermo Scientific
Instrument type: GC-EI-FT
Ms type: MS
Ion mode: POSITIVE
Retention time: 24.39524
Base peak: 178.9123
m/z	relative intensity
51.02293	6
53.03861	2
54.03392	2
55.05432	3
56.02572	5
56.06207	20
58.04136	3
59.03125	2
59.99953	5
60.02062	3
61.00738	29
62.01518	2
63.96141	9
64.03082	3
65.03867	7
66.04649	8
68.02578	6
68.04956	3
68.99478	3
69.05742	9
69.06988	17
71.9762	17
73.00736	117
73.02846	8
74.0152	17
74.03658	3
76.01817	3
78.98634	5
80.04957	8
80.06207	11
81.03358	3
82.53475	4
83.04921	6
83.06039	2
83.9761	41
83.98792	21
83.99948	98
85.0073	122
85.97328	10
86.01523	31
88.05191	3
88.9511	3
89.03873	1
89.98779	158
90.04646	3
90.49178	105
90.98628	55
91.49026	31
94.02883	6
94.96857	41
95.47242	4
95.97631	32
96.00433	35
96.02068	8
96.04447	3
96.05708	3
96.99387	12
97.00746	56
97.02849	1
97.0888	1
98.01513	49
99.02306	3
100.00577	15
101.05987	5
102.04658	6
102.96668	4
103.05425	2
104.04958	3
104.0621	7
104.98235	5
105.93731	13
106.06525	8
106.94504	36
106.96827	29
107.47232	84
107.93426	14
107.97604	245
107.99958	88
108.08093	7
108.47089	64
108.94213	25
108.97462	61
109.00744	175
109.97337	67
110.0152	65
110.03627	7
111.04421	2
111.05521	7
111.06808	2
112.01548	3
112.05207	2
112.06322	2
112.07595	2
115.05433	4
116.062	3
117.05751	7
117.9372	62
118.94523	16
118.96856	35
118.99813	3
119.04933	3
119.93436	50
119.97629	59
119.99961	147
120.09348	12
120.96526	12
121.00732	71
121.0283	2
121.9733	16
122.01518	56
122.07277	8
122.10896	2
123.04414	2
123.08043	3
124.06317	1
124.95682	25
125.05959	2
125.07122	1
125.13282	4
125.46055	101
125.95531	50
126.06766	4
126.45902	98
126.96313	27
127.45781	31
128.06195	4
129.05748	2
129.06563	5
129.07001	8
129.93739	29
130.06543	7
130.07774	2
130.94508	48
130.96854	21
131.08122	7
131.0856	8
131.9343	19
131.97615	232
131.9993	124
132.0808	3
132.92271	3
132.94209	31
132.96548	8
132.98401	40
133.01273	106
133.01355	155
133.06477	7
133.97334	82
134.99284	3
135.01057	2
136.05223	6
136.06323	3
137.04166	4
137.05974	3
139.05418	5
140.90602	36
141.0574	2
141.06993	6
141.93721	111
142.07797	1
142.44128	49
142.90315	46
142.94493	594
142.96837	39
143.07027	2
143.10646	4
143.44656	116
143.9435	741
143.97636	79
143.99957	231
144.44524	105
144.94223	389
144.96571	9
145.00732	218
145.06506	5
145.08897	4
145.10112	2
145.44356	40
145.94055	83
145.96852	16
146.01529	452
146.07265	3
146.93861	21
147.01858	57
147.06523	15
147.08037	5
147.93797	3
148.05199	4
148.92406	20
149.02353	8
149.92247	12
150.0674	6
151.05443	10
151.11172	2
151.95015	25
152.06223	3
152.9061	17
152.94873	28
153.9372	36
153.93771	26
154.06541	3
154.9032	17
154.94479	36
154.96841	13
155.0854	12
155.93422	20
155.976	124
156.94237	19
156.98406	32
157.97299	44
158.07271	4
159.92548	85
160.08798	2
160.42934	44
160.9239	140
160.95409	4
161.42825	86
161.92281	109
162.06779	1
162.4269	53
162.93042	48
162.96951	18
163.0757	2
163.11203	1
163.42496	16
164.90607	14
165.93704	64
165.94862	2
166.07777	2
166.10994	3
166.90328	13
166.94539	56
167.07294	5
167.08554	7
167.93445	40
167.97655	31
168.09344	2
168.94096	14
168.94214	36
168.98415	12
169.10142	7
169.4348	12
170.43347	16
171.43196	13
173.09619	2
175.0753	1
175.97765	2
176.08356	3
176.98543	14
177.91406	537
177.93771	16
177.98549	4
178.41544	68
178.91229	999
178.94514	19
179.00096	12
179.41412	143
179.91119	807
179.96439	13
179.97595	201
180.41272	113
180.90936	352
180.96167	1
180.98387	110
181.41116	39
181.90802	80
181.97316	85
181.99162	39
182.98129	43
183.08029	6
183.98436	14
185.13261	3
186.14006	2
187.14784	4
187.87486	7
188.98541	3
189.06993	3
189.87183	16
189.93713	25
190.94492	23
191.00079	22
191.08574	2
191.86942	7
191.93433	17
191.95303	31
192.00043	8
192.94228	17
192.98026	3
192.9975	13
193.01703	5
193.05016	4
193.95018	15
194.10901	5
194.89442	8
195.39841	63
195.89267	45
196.39682	134
196.89117	50
197.39542	146
197.89734	34
198.39368	69
199.3924	21
200.39117	9
201.91386	23
202.0779	2
202.9216	30
203.00151	1
203.17929	9
203.91113	20
203.93459	3
204.09332	2
204.91892	28
205.01669	7
205.10088	3
206.91547	5
207.03204	140
208.03122	16
209.02954	24
209.13275	1
210.02916	5
210.14029	1
211.14853	6
212.88231	76
213.88095	190
214.38306	20
214.87991	218
214.92146	22
214.94514	43
215.08563	2
215.87828	142
215.95323	515
216.87642	49
216.91887	14
216.94217	28
216.95659	61
217.19519	2
217.95038	327
218.95349	36
219.94722	51
220.95747	10
221.08438	5
222.97273	3
225.91417	33
227.9111	37
229.90822	5
237.89044	17
238.88008	18
239.88792	24
240.60436	5
240.87698	8
241.88434	12
248.98859	12
249.91345	91
250.92186	142
251.91116	86
251.93054	20
252.91966	138
253.19502	3
253.9079	26
253.92744	21
254.9167	45
257.22647	2
263.88809	9
265.01993	7
268.97952	3
270.23514	11
271.85168	10
273.25836	2
273.84842	20
275.84622	17
277.07727	6
281.05139	27
282.05035	3
283.04773	4
284.88336	25
285.89102	624
286.87967	36
286.89297	84
287.88742	847
288.87708	19
288.89114	108
289.88489	396
290.88861	53
291.88165	88
292.88544	11
295.24252	2
297.84891	16
299.84522	10
303.71518	5
310.85663	12
319.85077	59
320.86014	133
321.84811	90
321.86737	44
322.85611	223
323.84546	50
323.86478	64
324.8533	136
325.862	41
326.85141	41
326.96564	1
327.85748	9
355.0704	5
355.82767	494
356.82694	12
356.83054	71
357.82449	923
358.8287	113
359.82172	730
360.82538	89
361.81903	288
362.82178	36
363.30499	3
363.81613	60
367.33514	13
390.79733	85
391.80286	16
392.7951	202
393.79984	35
394.79141	187
396.78836	89
398.78525	27
425.76572	157
426.76935	17
427.76218	371
428.76508	42
429.76092	415
430.76428	54
431.75708	256
432.75983	33
433.75482	100
434.75803	13
435.75223	25
