Mass spectrum: M3TPh; GC-EI-FT; MS; Positive
Name: M3TPh
Name: Phenyltris(trimethylsiloxy)silane
Class: Non-Natural Product; Siloxane
Formula: C15H32O3Si4
Exact mass: 372.14285
SMILES: C[Si](C)(C)O[Si](C1=CC=CC=C1)(O[Si](C)(C)C)O[Si](C)(C)C
InChI: InChI=1S/C15H32O3Si4/c1-19(2,3)16-22(17-20(4,5)6,18-21(7,8)9)15-13-11-10-12-14-15/h10-14H,1-9H3
Instrument: Thermo Scientific Q Exactive GC Hybrid Quadrupol-Orbitrap
Instrument type: GC-EI-FT
Ms type: MS
Ion mode: POSITIVE
Base peak: 135.0624
m/z	relative intensity
59.03118	3
73.04682	111
75.02609	89
91.0543	4
105.0156	7
107.0312	24
119.0312	4
120.03908	3
131.03435	7
133.0136	7
135.06239	999
136.06581	139
137.05931	42
145.04684	2
149.07816	2
153.073	3
162.96973	2
176.98538	4
179.03426	5
191.00098	20
192.9803	7
193.0499	22
194.04953	5
207.0322	315
209.0291	35
210.02872	6
211.06041	3
225.04283	31
247.00934	12
251.03751	5
253.01662	71
263.04071	2
269.04797	93
325.05618	12
357.11874	29
