Mass spectrum: PCB-99; GC-EI-FT; MS; Positive
Name: PCB-99
Name: 2,2',4,4',5-Pentachlorobiphenyl
Class: Non-Natural Product; PCB
Formula: C12H5Cl5
Exact mass: 323.88339
SMILES: C1=CC(=C(C=C1Cl)Cl)C2=CC(=C(C=C2Cl)Cl)Cl
InChI: InChI=1S/C12H5Cl5/c13-6-1-2-7(9(14)3-6)8-4-11(16)12(17)5-10(8)15/h1-5H
Instrument: Trace 1310 GC, Thermo Scientific; Q Exactive Orbitrap, Thermo Scientific
Instrument type: GC-EI-FT
Ms type: MS
Ion mode: POSITIVE
Retention time: 15.81042
Base peak: 325.8796
m/z	relative intensity
51.02289	3
52.03084	3
53.0386	3
55.01792	8
55.05429	7
56.06205	23
57.03357	3
57.06986	20
58.07328	3
60.02069	3
61.00733	18
62.01518	7
63.02301	5
63.48472	5
63.98406	4
65.03865	5
68.04958	2
68.06206	1
69.03352	3
69.06985	9
70.04135	1
72.98405	10
73.00735	25
73.51125	18
74.01517	85
74.98112	5
75.02294	43
76.01832	3
77.00532	2
77.03869	13
78.04649	9
78.99572	6
79.04982	3
79.05434	6
80.04954	7
80.96899	7
81.46809	13
81.96742	6
82.94509	4
83.97628	28
83.99943	21
84.98397	19
85.00726	48
85.06472	1
85.97324	7
86.01515	51
86.98103	8
87.02306	27
87.04419	2
88.05182	1
90.0464	3
90.49177	3
90.9956	14
91.49963	24
92.0036	182
92.50512	26
93.00204	61
93.05747	1
93.06995	4
93.50372	4
95.97626	12
96.98409	28
97.00742	21
97.02842	2
97.06489	2
97.97321	7
98.0151	116
98.04746	3
98.07268	3
98.98098	7
99.02298	97
99.11694	2
100.02638	7
101.05985	2
102.96668	3
105.07007	3
106.06524	2
106.0778	4
106.94503	16
107.97631	48
107.99954	11
108.05702	5
108.06824	2
108.48001	4
108.94206	10
108.98416	188
109.00739	39
109.48571	24
109.98261	109
110.01512	43
110.48422	17
110.981	33
111.02308	34
111.05547	2
113.96462	10
114.04235	2
114.96328	6
115.05428	7
116.062	2
117.05743	3
117.07002	9
117.98943	12
118.07342	2
118.07784	4
118.94518	8
118.98766	5
118.9981	6
119.08556	2
119.9763	10
119.9995	29
120.98409	22
121.00733	33
122.01514	120
122.0966	2
122.98111	7
122.99978	2
123.0228	137
123.11691	3
123.49097	20
124.03077	33
124.48947	11
125.0599	2
125.09631	2
125.96435	15
126.46841	11
126.97224	462
127.47398	71
127.97093	455
128.4724	67
128.96932	142
129.09126	2
129.47107	21
129.96791	20
130.9451	13
131.08553	8
131.9761	36
131.99933	3
132.94197	10
132.98389	84
133.01352	5
133.9733	13
133.99159	24
134.015	4
134.98099	27
134.99956	8
135.02312	21
136.05209	3
136.0883	1
136.12494	1
137.03857	29
137.07129	1
139.05444	6
139.11177	2
139.14832	2
140.04945	3
140.47159	6
142.94496	11
143.07295	1
143.9527	97
143.97638	8
143.9995	13
144.08077	4
144.09325	1
144.45708	60
144.95151	131
144.98384	24
145.00732	10
145.0649	3
145.45554	79
145.94992	69
145.96844	2
146.01524	85
146.07262	9
146.0963	2
146.45386	43
146.93857	13
146.94815	16
146.98122	4
146.99976	27
147.02275	142
147.04387	2
148.03059	213
148.08818	2
148.95422	3
148.99667	7
149.02348	4
149.03857	342
150.0421	55
150.06781	2
151.08673	1
153.07004	3
153.91406	2
155.06053	1
155.97595	10
156.98389	31
157.06476	2
157.99153	54
158.96654	3
158.98105	7
158.9998	33
159.98892	18
160.08846	2
160.12488	2
160.99674	9
161.94096	77
162.44263	9
162.93982	103
163.4417	9
163.93845	75
164.43986	12
164.93654	26
165.1637	1
165.43858	3
166.94544	4
167.04897	14
167.95309	13
168.94222	1
168.96037	5
168.98817	4
169.96858	19
170.10904	1
170.95749	11
170.99962	9
171.96544	13
172.99654	4
175.14792	1
176.98543	3
177.04468	17
180.09329	1
180.96075	16
180.9838	6
181.92633	3
181.96848	10
181.99149	55
182.95795	9
182.99968	167
183.11678	1
183.96552	4
183.98891	16
184.00758	978
184.99692	55
185.01105	133
186.00432	304
186.00499	138
187.00772	45
191.00072	8
191.95279	7
192.96082	20
193.96803	41
193.97022	4
194.95747	10
195.96536	25
197.963	5
201.00986	11
202.07784	7
203.00763	4
203.92972	55
205.92683	44
206.92975	2
206.97607	4
207.03273	43
207.10239	2
207.92369	12
208.97286	4
211.00606	2
213.00234	3
215.08553	1
216.96077	10
217.19507	1
217.9684	199
218.95799	7
218.9763	128
219.96556	114
219.97966	19
220.97334	90
221.96277	19
221.9762	10
222.97084	11
227.92934	12
229.92673	13
231.92407	3
236.98708	12
238.98402	8
246.98256	55
247.98566	5
248.97998	34
251.9304	3
252.93796	8
253.9391	8
253.94562	668
254.93469	9
254.94862	97
255.94244	636
256.94516	92
257.93951	197
258.94278	27
259.93652	24
260.9393	3
267.99835	1
281.0513	2
287.90674	20
288.91376	166
289.90353	18
289.91638	23
290.91129	218
291.90079	10
291.91364	28
292.90808	111
293.91156	10
294.90506	18
323.88248	642
324.8859	88
325.87964	999
326.88287	135
327.87631	626
328.88061	82
329.86728	2
329.87369	180
330.8772	24
331.87143	34
332.87485	4
