Mass spectrum: BTBPE; GC-EI-FT; MS; Positive
Name: BTBPE
Name: 1,2-Bis(2,4,6-tribromophenoxy)ethane
Class: Non-Natural Product; Brominated flame retardant
Formula: C14H8Br6O2
Exact mass: 681.56246
SMILES: C1=C(C=C(C(=C1Br)OCCOC2=C(C=C(C=C2Br)Br)Br)Br)Br
InChI: InChI=1S/C14H8Br6O2/c15-7-3-9(17)13(10(18)4-7)21-1-2-22-14-11(19)5-8(16)6-12(14)20/h3-6H,1-2H2
Instrument: Thermo Scientific Q Exactive GC Hybrid Quadrupol-Orbitrap
Instrument type: GC-EI-FT
Ms type: MS
Ion mode: POSITIVE
Base peak: 356.79398
m/z	relative intensity
54.04651	12
55.05435	22
56.01235	14
56.06213	4
57.0335	12
57.06992	54
58.07332	4
59.04916	6
60.02064	9
61.02839	9
62.01522	78
63.02296	114
65.03856	10
67.05424	41
68.03983	20
68.06213	19
69.03358	25
69.06993	60
70.04144	9
70.0778	4
71.08566	15
72.08895	14
74.01511	118
74.04638	20
75.02615	33
75.0438	5
78.04642	13
78.91789	27
79.0275	2
79.05429	32
79.92567	77
80.91582	46
81.04311	4
81.92358	54
82.07781	35
83.04913	15
85.02853	17
85.06489	15
86.03632	10
87.04416	15
89.03866	194
90.01018	17
90.04648	77
91.01791	20
91.05429	78
92.06211	20
95.08577	28
96.00427	12
96.05704	15
97.03817	20
97.06487	7
97.10132	34
98.03648	32
98.0727	10
100.05187	19
102.96666	12
104.06209	20
106.94919	3
107.08558	20
108.05706	11
108.09358	19
108.94723	14
109.0648	5
109.10121	46
111.11703	17
115.00304	6
115.05395	12
115.05428	12
115.07548	10
115.92586	19
116.02875	6
116.04684	4
116.06229	16
116.93351	47
117.01872	4
117.03677	12
117.07004	16
117.92377	21
118.0414	377
118.07787	20
118.93571	59
118.99811	4
119.04476	27
119.08557	50
121.06484	11
124.12465	7
125.09628	8
126.06758	5
126.10404	6
127.05406	5
127.14827	11
128.0623	9
129.03654	14
129.0696	9
129.06999	13
130.07771	17
131.04932	13
131.93909	23
134.01331	15
134.03619	3
134.10913	13
135.08035	10
135.11705	15
136.08827	6
137.00841	11
137.09631	13
138.10417	3
139.11183	3
139.1483	6
139.92587	14
140.9333	517
141.06992	24
141.94125	72
142.93159	488
142.949	79
143.10692	6
143.93465	58
144.94687	94
145.06499	7
145.10112	8
146.07245	5
146.10916	14
146.94485	7
147.1171	35
148.12497	22
149.04503	7
149.09627	8
149.13246	32
150.10382	8
151.11169	9
151.92593	18
152.06216	8
152.93339	162
153.06981	4
153.12747	3
153.92328	15
153.94122	32
154.93162	151
155.93938	17
156.09314	8
157.12234	12
157.94582	13
158.10893	11
159.11671	20
159.96146	2
161.04172	4
161.09602	14
161.13232	9
162.97002	14
163.11195	3
163.96948	10
164.15617	15
164.98561	3
165.1274	8
165.98528	5
166.94891	27
167.89529	9
167.9572	21
168.09338	5
168.96466	137
169.12209	3
169.93599	97
170.07275	3
170.10429	11
170.84433	13
170.96243	141
171.11673	3
171.84705	18
171.93417	95
171.9662	59
172.84157	14
173.13281	10
173.84534	22
173.98128	13
174.14034	5
174.94849	4
175.148	24
175.84297	34
175.97974	5
176.94629	16
176.96397	29
177.95418	34
177.97205	5
178.07787	7
178.98235	11
179.00104	7
179.08585	4
179.1431	2
180.00061	3
181.10144	4
183.11661	10
185.08064	4
185.1322	11
185.13287	10
185.15375	9
186.14069	2
188.96445	5
189.164	4
191.00082	4
191.17949	8
192.98027	7
192.99762	16
193.01708	9
193.05005	6
193.15889	10
194.01611	3
194.84401	41
194.99591	16
195.11653	9
195.95152	190
195.99567	10
196.84239	81
196.9594	141
197.94963	197
197.96754	36
198.83971	36
198.95795	108
199.14778	14
199.96555	28
200.96864	4
201.16373	2
202.07793	9
205.01652	11
205.10164	6
205.19467	7
208.0728	15
209.0808	10
210.13618	4
211.14769	5
212.15659	5
213.16351	25
215.08562	3
215.17961	3
219.21045	9
219.85211	70
220.85982	93
221.84949	128
222.85753	187
223.84758	69
224.86807	106
225.04292	29
225.98618	3
226.04216	15
227.03981	15
227.12836	16
227.17964	8
227.20079	12
229.19537	5
231.8522	124
232.8425	25
233.84975	224
235.84795	113
238.88408	10
241.86827	2
245.22679	5
246.8756	53
247.24242	11
247.84672	78
247.88332	61
248.85475	21
248.87373	111
248.98865	11
249.84499	185
249.86284	253
249.88112	143
250.87164	85
250.96764	1
251.8577	115
251.86092	422
251.87938	91
252.8635	32
252.90019	4
253.01678	2
253.85803	271
253.89059	10
254.87378	8
254.89775	20
255.21146	8
255.86485	21
256.87265	1
256.89587	9
257.22543	2
257.22656	11
258.87067	6
259.24213	8
261.88089	7
263.8606	23
264.24515	6
266.99954	3
267.01703	7
267.99857	6
268.88376	10
269.88037	8
271.87824	27
275.87848	217
276.86838	19
276.8869	24
277.87622	476
278.88324	45
279.87445	190
280.88232	8
282.05063	4
283.04819	9
284.90448	6
285.24289	6
293.89972	2
298.77002	101
299.06107	13
300.76852	308
302.76608	274
304.76334	55
306.77936	11
307.78259	11
309.78033	17
311.25729	7
312.76877	16
313.27405	10
314.76581	10
320.78653	7
324.78589	19
326.76477	51
326.78369	71
327.77209	64
328.76309	136
328.78232	71
328.79971	43
329.77148	197
330.76047	141
330.7637	67
330.80685	20
331.76865	172
332.75864	47
332.78561	12
332.80341	9
333.768	73
333.79285	67
333.8165	19
334.78378	38
334.80145	27
335.81375	4
336.78159	16
337.81229	1
338.77945	3
338.79724	6
339.78717	9
340.77386	38
342.77261	35
344.79639	5
346.79462	7
350.78867	22
353.78909	9
354.79663	330
355.06967	15
355.7868	62
356.79398	999
357.79785	82
358.79169	952
359.79486	84
359.79669	41
360.78986	304
360.8172	12
361.80862	5
362.81366	36
363.80566	8
365.2681	5
367.28473	20
368.34277	3
377.9295	9
395.31677	3
403.81427	11
407.31662	3
421.33182	2
450.36554	4
477.3945	6
495.44067	9
