Mass spectrum: Dioctyl terephthalate; GC-EI-FT; MS; Positive
Name: Dioctyl terephthalate
Name: Dioctyl benzene-1,4-dicarboxylate
Class: Non-Natural Product; Industrial chemical
Formula: C24H38O4
Exact mass: 390.27701
SMILES: CCCCCCCCOC(=O)C1=CC=C(C=C1)C(=O)OCCCCCCCC
InChI: InChI=1S/C24H38O4/c1-3-5-7-9-11-13-19-27-23(25)21-15-17-22(18-16-21)24(26)28-20-14-12-10-8-6-4-2/h15-18H,3-14,19-20H2,1-2H3
Instrument: Trace 1310 GC, Thermo Scientific; Q Exactive Orbitrap, Thermo Scientific
Instrument type: GC-EI-FT
Ms type: MS
Ion mode: POSITIVE
Retention time: 11.89839
Base peak: 149.0233
m/z	relative intensity
53.03862	7
55.05424	177
56.06207	76
57.06989	122
58.0733	5
65.03861	81
67.05428	56
69.06993	86
70.07776	395
71.08557	177
72.08895	10
75.02299	6
76.03082	27
77.03863	16
79.05429	32
81.06995	7
83.08554	350
84.09339	255
91.0543	4
95.0856	5
97.10126	30
102.96668	1
104.02571	148
105.03359	34
111.11695	1
115.05432	1
122.03632	48
132.02069	23
135.04414	7
139.03906	11
149.02335	999
150.02673	107
167.03386	613
168.03728	55
176.98541	4
191.00107	10
207.03235	37
279.15918	54
