Mass spectrum: 6:3 FTOH; GC-EI-FT; MS; Positive
Name: 6:3 FTOH
Name: 4,4,5,5,6,6,7,7,8,8,9,9,9-Tridecafluorononan-1-ol
Class: Non-Natural Product; Fluoroalcohol
Formula: C9H7F13O
Exact mass: 378.02893
SMILES: C(CC(C(C(C(C(C(F)(F)F)(F)F)(F)F)(F)F)(F)F)(F)F)CO
InChI: InChI=1S/C9H7F13O/c10-4(11,2-1-3-23)5(12,13)6(14,15)7(16,17)8(18,19)9(20,21)22/h23H,1-3H2
Instrument: Thermo Scientific Q Exactive GC Hybrid Quadrupol-Orbitrap
Instrument type: GC-EI-FT
Ms type: MS
Ion mode: POSITIVE
Base peak: 107.0303
m/z	relative intensity
51.00413	27
51.02299	2
55.01791	2
57.01355	15
57.03352	38
58.02139	2
58.03691	2
59.02922	150
60.03257	8
61.00846	3
64.01197	11
65.01977	18
66.99903	1
68.9947	316
69.01354	2
69.99809	4
70.0214	1
70.99281	1
71.0292	22
72.03257	1
73.00848	5
73.99631	1
75.00414	38
76.01196	13
77.01974	168
78.02316	9
79.03544	13
80.99474	2
81.01476	2
82.00255	2
83.01036	6
87.00417	1
87.02416	7
88.01198	9
88.03197	3
89.01977	48
90.02766	12
90.99908	14
91.03546	22
92.99476	35
94.00259	4
95.01035	94
96.01373	3
96.98969	18
99.00421	2
99.9931	94
100.99655	3
101.01985	15
102.02316	2
104.00687	2
105.01477	1
106.00258	3
107.01035	11
107.03035	999
107.05062	3
108.01823	14
108.03371	50
109.02606	42
109.03468	3
110.02943	2
111.00533	4
111.99315	7
113.00095	35
114.00439	2
115.01664	5
116.99586	6
117.01473	3
118.02255	3
118.99149	138
119.01041	20
119.99493	3
120.01823	9
121.02605	7
121.99748	3
123.00529	2
123.99316	3
125.00101	2
126.0088	9
127.01661	19
130.9915	276
131.9949	10
133.00719	8
137.00098	15
138.0088	2
138.02876	1
139.0166	18
140.02444	5
142.99155	8
143.99936	3
145.00719	15
148.01305	2
149.98993	3
150.00879	3
151.01662	6
152.02443	1
154.99147	1
157.00717	13
158.01511	2
159.02277	2
161.9899	10
162.99771	9
168.98827	34
169.00716	6
169.99164	1
170.01498	9
171.0228	1
174.99774	5
177.01332	1
180.98825	36
181.00716	3
181.99159	1
186.99777	2
189.01338	3
190.0211	1
192.98837	2
195.00392	3
198.00992	1
200.00557	1
201.01337	3
207.004	3
212.99452	3
219.00398	2
220.01183	2
224.99454	3
230.9852	11
231.00409	3
236.99464	3
242.98529	2
251.01012	1
257.00095	1
262.99149	1
269.00107	2
274.99155	4
280.98206	3
294.99762	1
312.98816	2
318.99747	1
324.98807	2
330.97879	1
339.00375	4
344.99429	3
362.98486	3
389.0007	2
460.98309	4
476.00626	8
