Mass spectrum: Bis(4-methylphenyl) disulfide; GC-EI-FT; MS; Positive
Name: Bis(4-methylphenyl) disulfide
Name: p-Tolyl disulfide
Class: Non-Natural Product 
Formula: C14H14S2
Exact mass: 246.05369
SMILES: CC1=CC=C(C=C1)SSC2=CC=C(C=C2)C
InChI: InChI=1S/C14H14S2/c1-11-3-7-13(8-4-11)15-16-14-9-5-12(2)6-10-14/h3-10H,1-2H3
Instrument: Trace 1310 GC, Thermo Scientific; Q Exactive Orbitrap, Thermo Scientific
Instrument type: GC-EI-FT
Ms type: MS
Ion mode: POSITIVE
Retention time: 9.53
Base peak: 123.0263
m/z	relative intensity
53.03863	4
57.98724	4
61.51191	7
63.02297	13
65.03862	26
68.97941	19
70.99506	7
74.01516	3
77.03859	171
78.04646	46
79.05425	189
81.98723	15
84.00289	5
86.01516	1
89.03861	36
91.05425	233
92.05764	21
94.99506	9
97.01073	29
105.0247	4
108.00286	55
109.01075	9
121.01069	145
122.01852	86
123.0263	999
124.03419	248
126.03002	11
128.06213	3
139.05431	4
150.04649	1
151.05432	2
152.98276	28
153.99057	32
163.05423	3
165.0699	30
167.08551	97
178.0777	5
179.08554	4
180.09341	3
181.10118	24
183.11237	21
197.04195	14
211.05765	7
212.06548	6
246.05315	503
247.05653	81
