Mass spectrum: heptachlor; GC-EI-FT; MS; Positive
Name: heptachlor
Name: 1,5,7,8,9,10,10-heptachlorotricyclo[5.2.1.02,6]deca-3,8-diene
Class: Non-Natural Product; Organochlorine
Formula: C10H5Cl7
Exact mass: 369.82109
SMILES: C1=CC(C2C1C3(C(=C(C2(C3(Cl)Cl)Cl)Cl)Cl)Cl)Cl
InChI: InChI=1S/C10H5Cl7/c11-4-2-1-3-5(4)9(15)7(13)6(12)8(3,14)10(9,16)17/h1-5H
Instrument: Trace 1310 GC, Thermo Scientific; Q Exactive Orbitrap, Thermo Scientific
Instrument type: GC-EI-FT
Ms type: MS
Ion mode: POSITIVE
Retention time: 12.75721
Base peak: 100.0074
m/z	relative intensity
51.02297	5
52.01827	4
52.03076	6
53.03862	47
54.04649	3
55.03646	11
55.05432	23
56.06206	118
57.03358	2
57.06988	86
58.04133	7
61.00726	3
62.0152	12
63.02288	15
63.96143	2
64.03082	8
64.96837	8
65.03854	259
66.02408	11
66.0465	162
67.03196	14
67.05419	77
68.47517	8
69.05202	9
69.70424	3
70.05539	27
70.07773	3
71.06325	133
71.08561	11
72.05704	2
72.9839	50
73.00738	11
73.02846	11
74.01518	50
74.9862	16
75.02296	30
75.99416	8
76.03082	4
76.9566	6
78.99461	131
80.03515	21
80.99171	38
81.03358	65
82.05256	4
82.06512	13
82.07768	20
82.94492	27
83.0492	7
83.08557	18
83.94848	8
83.97615	19
84.04433	11
84.94217	33
85.00733	23
85.1012	7
85.94546	3
86.0152	38
87.0231	15
87.98955	4
89.03852	14
91.05434	75
92.06218	39
93.03863	19
94.02882	3
94.0413	14
94.96824	87
95.04924	154
95.94402	4
95.9763	23
96.04446	6
96.05708	333
96.09344	14
96.96543	25
96.98412	75
97.02847	6
97.06491	24
97.10135	2
97.98263	20
98.01511	64
98.99979	117
99.023	48
100.00736	999
100.05193	5
100.93568	9
100.99661	32
101.01084	83
101.03863	7
101.43963	6
101.96448	17
102.00453	264
102.94935	14
102.96673	22
102.99931	33
103.00824	33
103.05425	2
103.94799	7
103.99778	14
104.01654	6
105.01006	9
105.9373	30
105.97798	8
106.01343	19
106.94504	38
106.9765	9
107.04962	2
107.93426	23
107.9763	39
108.05708	2
108.9472	41
108.96074	20
108.98392	36
109.00745	7
109.06492	5
109.9551	22
109.9734	11
110.03631	6
110.10899	3
111.0442	1
111.11675	6
111.95222	15
111.97065	6
112.05175	3
112.95538	18
113.0385	43
113.96472	33
113.99635	12
114.06757	1
114.97219	81
115.97085	61
115.99329	9
116.06189	5
116.9061	114
116.96956	13
117.05727	8
117.06974	17
117.42166	60
117.90937	4
117.93717	33
118.06506	11
118.07758	20
118.42025	94
118.9031	118
118.94522	23
119.41862	60
119.90653	21
119.93015	65
119.93405	40
119.98906	8
120.05716	23
120.41732	19
120.90015	33
120.98773	44
121.90357	7
121.9505	16
122.01511	51
122.03621	5
122.06877	5
122.92561	2
122.99983	22
123.02289	92
124.03088	75
124.11213	2
124.12474	4
125.03846	83
125.05995	3
125.09598	1
126.04639	56
126.99957	3
128.00752	11
128.06197	17
129.06534	6
129.07002	20
129.93733	151
130.00458	4
130.01805	136
130.02327	1
130.94524	51
131.04941	2
131.93419	94
131.9529	113
131.97618	32
132.01524	42
132.0486	18
132.92311	7
132.95142	179
132.98393	57
133.93141	19
133.95007	75
133.96837	82
133.99174	9
134.06418	17
134.95413	39
134.97644	324
135.04425	6
135.07202	29
135.9619	48
135.97978	14
136.00745	31
136.07983	32
136.11221	5
136.12456	30
136.95123	9
136.96977	228
137.46668	8
137.96797	28
138.14038	3
138.47211	1
138.96664	59
139.47047	1
139.993	13
139.99344	14
140.90596	237
141.01064	3
141.99031	4
142.90318	245
142.94498	28
143.0079	5
143.98702	1
144.03438	12
144.9001	71
144.94182	12
144.98396	12
145.06502	10
145.91309	28
145.96851	3
146.04756	1
146.99936	115
147.08031	7
147.91036	9
147.96597	17
148.00738	55
148.93332	9
148.96507	18
148.99674	35
149.02353	15
149.09634	4
150.93043	18
150.98071	3
154.07771	4
154.94873	18
155.06059	2
156.02991	7
156.91966	2
156.96082	32
156.98404	12
157.06483	3
157.99167	59
158.10901	6
158.95746	18
158.9993	133
159.11662	3
160.00748	456
160.9968	43
161.01112	46
161.96861	9
162.00456	127
162.02295	25
162.96956	11
163.05444	3
164.02026	6
164.90591	125
165.0943	2
165.98131	4
166.90315	114
167.95317	13
168.02562	6
168.90044	34
168.9191	26
168.93752	56
168.96056	17
169.03307	41
169.92282	7
169.96864	43
170.02223	5
170.0412	53
170.91632	11
170.93413	50
171.0303	11
171.93835	22
171.96565	19
172.03821	2
172.05641	34
172.93129	13
173.91667	3
173.9352	14
173.95425	2
174.05409	8
176.06224	3
177.99504	3
179.08589	4
179.99225	17
180.96106	33
181.9684	64
182.95802	7
182.97647	160
183.96559	36
184.97354	103
185.13216	5
186.97012	14
189.02165	18
190.92154	36
191.08588	2
192.91867	45
192.96097	24
192.98021	8
193.96826	398
194.91632	5
194.95795	5
194.97621	95
195.96541	249
195.98378	76
196.97348	39
197.94507	6
197.96234	37
197.98093	43
199.05486	11
199.94191	5
200.88263	47
202.87961	69
202.9984	11
203.92982	59
204.87718	30
205.00943	3
205.89926	18
205.92607	51
206.01746	59
207.00645	9
207.03207	89
207.10167	2
207.89644	32
208.01463	47
209.02888	7
209.89354	9
210.01199	12
210.94859	5
210.9708	15
211.95581	5
213.95308	11
216.93759	153
217.94006	9
218.9346	127
220.93184	36
221.90797	5
222.98254	69
224.97943	36
225.96776	12
225.99527	22
227.92941	32
227.99222	12
228.93747	26
229.19518	19
229.92691	25
229.94557	253
230.93407	27
230.9482	21
231.92418	10
231.94206	232
232.93211	9
232.94546	18
233.01607	13
233.93874	73
234.84401	370
235.01315	10
235.8519	75
236.84033	596
237.84943	135
237.96298	9
238.83737	370
238.96921	2
239.84633	84
239.86082	12
239.88786	8
239.95964	10
239.97853	37
240.83487	109
240.8539	8
240.86783	13
241.78441	2
241.84294	24
241.97609	36
242.83203	18
242.85133	10
242.86548	5
242.98341	5
243.84045	3
243.85461	27
243.97324	20
244.86226	9
250.89822	13
252.8958	23
255.86908	1
257.22647	3
259.9559	36
261.95358	38
262.85696	8
263.9064	165
263.95023	9
264.91437	46
265.90323	224
266.91275	62
267.90048	101
268.90848	25
269.81238	442
269.88025	3
269.89691	22
270.81662	15
271.80948	829
272.25021	7
272.81235	38
273.80698	731
273.82547	3
273.93945	16
274.81131	37
274.82986	36
274.93466	8
274.94733	18
275.80432	322
275.82242	15
275.93701	9
276.82611	15
276.94461	16
277.80151	67
277.8201	8
277.93433	7
278.94165	17
280.82019	20
282.8172	8
294.92557	16
296.92136	15
298.87528	44
300.87186	72
301.87991	19
302.86908	40
303.71374	10
304.86606	10
309.91748	3
310.90478	4
311.9136	3
312.90329	3
330.90198	99
332.89777	153
333.90247	16
334.85217	52
334.89523	100
336.84918	116
336.89243	24
338.84549	88
340.84232	35
342.84061	7
347.87634	3
373.8147	9
