Mass spectrum: PBDE-49; GC-EI-FT; MS; Positive; CE: 35
Name: PBDE-49
Name: 2,2,4,5-Tetrabromodiphenyl ether
Class: Non-Natural Product; Brominated Flame Retardant 
Formula: C12H6Br4O
Exact mass: 481.7152
SMILES: C1=CC(=C(C=C1Br)Br)OC2=C(C=CC(=C2)Br)Br
InChI: InChI=1S/C12H6Br4O/c13-7-2-4-11(10(16)5-7)17-12-6-8(14)1-3-9(12)15/h1-6H
Instrument: Trace 1310 GC, Thermo Scientific; Q Exactive Orbitrap, Thermo Scientific
Instrument type: GC-EI-FT
Ms type: MS
Ion mode: POSITIVE
Collision energy: 35 eV
Retention time: 23.02375
Base peak: 325.8752
m/z	relative intensity
103.0544	4
104.06226	4
105.03358	49
105.06998	1
106.04137	12
106.06543	1
106.07777	2
107.08574	2
107.97833	3
107.99971	4
108.48231	35
108.98406	3
109.00756	12
109.10133	2
109.48127	40
110.01533	26
111.023	30
112.03087	16
113.03864	13
114.04646	1
114.0677	3
115.0545	6
116.05781	1
116.93342	20
117.06992	2
117.92364	3
118.07775	4
118.93146	24
118.99797	2
119.08578	3
121.02862	1
121.06471	1
121.10117	2
122.03638	2
122.07255	1
122.98348	10
123.08057	1
123.98257	8
126.06782	1
127.03897	1
127.92577	10
128.93341	3
129.06985	3
129.9236	10
130.07794	4
130.91281	3
131.03429	1
131.08099	1
131.08542	2
131.99956	2
132.08917	2
133.01382	8
134.01524	4
134.03645	2
134.09647	1
135.02296	2
136.03107	4
137.03882	239
137.48158	3
138.04651	330
139.04866	5
139.05438	104
140.05777	9
140.93356	21
141.06976	4
141.94157	23
142.07781	1
142.93141	18
142.94939	6
143.08565	5
143.93918	23
144.94713	7
145.06483	3
146.10466	1
146.93845	2
147.06567	4
147.117	3
147.43732	2
149.05997	228
149.09612	1
150.06319	24
151.03923	1
151.0542	2
151.07562	2
152.93324	29
153.94107	80
154.07748	1
154.93143	41
154.94487	5
155.06041	2
155.08572	2
155.93921	79
156.05737	2
156.09349	2
156.94264	8
157.10104	2
159.11711	1
161.05952	1
161.93863	86
162.06755	1
162.44023	10
162.9375	160
162.96985	3
163.43929	19
163.93663	69
164.0621	1
164.43857	6
165.07014	3
166.04132	35
166.04246	8
166.94933	1
167.04488	8
168.05688	9
169.10124	1
169.93636	46
170.09639	1
170.10889	1
170.8441	7
171.11725	2
171.93398	40
172.84207	17
172.93716	3
174.83957	7
176.98531	2
179.00079	1
180.09314	1
181.10135	2
182.95515	3
184.95293	3
185.0961	4
189.16377	1
190.94891	16
191.00136	8
192.94705	14
193.01701	2
193.04999	3
194.84383	2
194.97672	1
195.05565	4
196.84209	13
207.10217	5
208.07336	2
214.09421	2
214.94914	2
215.0854	1
215.95651	11
216.96492	298
217.95557	11
217.96829	34
218.96307	284
219.96635	25
220.8595	67
221.86343	2
222.85732	135
224.85526	67
232.85942	3
234.85733	8
243.95184	6
244.96002	25
245.94962	6
245.96818	72
246.95766	26
246.97107	9
247.9658	64
248.85422	8
248.96957	8
248.9883	2
250.85226	15
250.96738	1
251.86061	6
252.85024	5
253.85777	3
260.86569	14
262.86371	28
264.86169	13
268.97815	1
272.87314	4
272.96634	26
273.96991	3
274.96426	26
275.96661	1
281.05139	7
285.00973	1
294.87552	10
296.87317	21
298.87076	11
323.87805	490
324.88135	61
325.87521	999
326.87991	117
327.87338	474
328.87769	61
328.88409	1
329.88037	4
337.91528	2
344.97653	1
401.78772	4
403.78558	12
403.80518	8
405.78522	13
405.80276	24
406.80493	3
407.78207	3
407.79953	24
408.80267	3
409.79816	7
430.0892	1
481.71442	56
482.71756	3
483.71213	249
484.7157	32
485.71091	357
486.715	36
487.70767	235
488.71231	32
489.70508	59
