Mass spectrum: Octamethylcyclotetrasiloxane (D4); GC-EI-FT; MS; Positive
Name: D4
Name: Octamethylcyclotetrasiloxane
Class: Non-Natural Product; Cyclosiloxane
Formula: C8H24O4Si4
Exact mass: 296.07517
SMILES: C[Si]1(O[Si](O[Si](O[Si](O1)(C)C)(C)C)(C)C)C
InChI: InChI=1S/C8H24O4Si4/c1-13(2)9-14(3,4)11-16(7,8)12-15(5,6)10-13/h1-8H3
Instrument: Thermo Scientific Q Exactive GC Hybrid Quadrupol-Orbitrap
Instrument type: GC-EI-FT
Ms type: MS
Ion mode: POSITIVE
Base peak: 229.0014
m/z	relative intensity
55.05426	3
59.03117	8
61.01043	1
67.05422	7
69.06988	3
73.04678	171
74.04637	10
75.02609	9
77.03857	5
79.05423	9
81.0699	6
83.08553	2
91.05426	10
95.08555	3
102.9666	1
105.06991	3
115.00301	6
117.01864	6
118.99792	19
119.99748	2
120.97714	2
123.11683	1
125.99632	2
129.06984	2
133.0135	66
134.00316	12
134.99277	3
137.00844	6
139.11191	0
142.0188	19
145.04988	2
146.93837	4
149.0448	4
151.02405	21
153.0033	2
160.95395	3
162.96962	27
163.96918	5
164.98529	25
165.98488	4
174.96959	1
175.97745	9
177.98483	10
179.00089	42
180.00047	7
181.97974	2
187.00606	0
188.98526	10
191.00079	233
192.00043	36
192.9801	158
193.97975	25
194.99583	26
195.99542	4
196.97516	6
201.02161	1
205.01651	87
206.0161	14
207.03214	133
208.03177	22
209.01143	82
210.99071	47
212.9875	6
217.01665	1
220.95711	19
223.02715	22
224.02667	4
225.04277	31
229.00136	7
233.96497	3
236.96951	5
238.9677	5
241.03778	0
248.9883	266
250.98517	40
252.98335	9
264.93875	0
265.01962	370
266.99905	82
267.9986	17
268.99579	12
281.05072	999
282.05051	201
285.04477	9
299.06146	72
