Mass spectrum: 2-Ethylhexyl 2,3,4,5-Tetrabromobenzoate; GC-EI-FT; MS; Positive
Name: 2-Ethylhexyl 2,3,4,5-Tetrabromobenzoate
Name: Benzoic acid, 2,3,4,5-tetrabromo-, 2-ethylhexyl ester
Class: Non-Natural Product; Brominated Flame Retardant
Formula: C15H18Br4O2
Exact mass: 545.80403
SMILES: CCCCC(CC)COC(=O)C1=CC(=C(C(=C1Br)Br)Br)Br
InChI: InChI=1S/C15H18Br4O2/c1-3-5-6-9(4-2)8-21-15(20)10-7-11(16)13(18)14(19)12(10)17/h7,9H,3-6,8H2,1-2H3
Instrument: Thermo Scientific Q Exactive GC Hybrid Quadrupol-Orbitrap
Instrument type: GC-EI-FT
Ms type: MS
Ion mode: POSITIVE
Base peak: 70.07777
m/z	relative intensity
51.02299	2
53.03864	20
54.0465	6
55.05422	500
56.06209	175
57.03359	1
57.06991	165
58.07327	8
65.03858	6
66.04641	3
67.05422	122
68.06213	21
69.06991	202
70.07777	999
71.08564	136
72.08894	5
73.00741	13
73.04694	2
74.01508	21
75.02301	6
77.03862	7
78.9179	10
79.05427	5
79.92566	16
80.91576	12
81.0699	17
81.92357	18
82.07778	204
83.08546	742
84.09345	533
85.0967	28
86.03633	2
87.04414	3
91.05427	3
93.06993	8
95.04921	2
95.08574	3
96.05704	1
96.0934	6
97.02841	2
97.1013	57
98.03643	2
98.10475	6
99.04414	2
99.08065	1
101.00231	3
103.05445	4
104.06205	5
105.07005	7
106.07786	1
107.08556	3
109.10119	10
110.10899	5
111.11698	7
112.1249	195
113.05968	2
113.12819	16
115.05392	10
115.05425	15
116.06232	4
117.03672	1
117.06967	18
117.07002	13
118.07784	5
119.08554	9
121.10128	6
123.04408	1
123.08063	1
126.06759	3
127.05398	1
127.07553	1
127.92551	3
128.06226	2
129.06957	11
129.06995	3
130.07768	4
131.08554	6
133.0135	1
133.10123	4
134.10907	2
135.11702	2
137.05963	2
137.13243	2
139.07564	2
139.14828	2
140.93375	4
141.06988	4
142.07788	2
142.93158	2
143.08484	1
143.08577	4
145.10107	6
146.10919	2
147.0658	2
149.02348	26
150.02686	3
151.9259	128
152.93341	30
153.92375	122
154.07712	2
154.93156	28
155.06045	2
156.09366	2
156.87898	2
158.07262	1
158.10893	2
162.96997	2
163.09349	1
163.14821	2
167.0856	1
168.09337	1
168.92866	5
169.10146	2
170.92644	4
173.13272	1
175.07523	2
176.15624	2
176.98537	2
180.92799	9
182.9261	8
189.164	2
190.07764	2
191.17943	1
192.09349	1
192.98015	1
193.10109	2
205.01651	2
207.8346	1
208.0726	1
210.0283	2
211.1485	1
213.16354	1
214.09441	2
220.84204	5
222.85751	5
225.16339	1
227.17871	1
229.19514	2
230.84366	55
231.21121	1
231.83418	6
231.85249	13
232.84151	113
233.83147	5
233.85001	27
234.84021	52
235.84836	11
235.86536	3
237.16353	1
247.8465	6
248.98846	2
249.84471	14
251.84261	6
255.21144	3
258.12564	2
258.83929	34
260.83661	68
260.84	10
261.83994	2
262.8352	33
262.83749	14
264.85016	4
265.02026	4
271.24139	2
276.83127	1
278.84824	3
295.24271	2
298.7699	1
300.76846	7
302.76599	7
304.76346	2
309.76254	26
311.76028	77
312.76431	4
313.75818	70
313.76117	15
314.76129	3
315.75568	24
315.75867	10
337.75729	3
338.7655	18
339.75485	7
340.7637	55
341.75336	10
342.76092	53
343.7627	4
344.75858	14
354.76071	5
356.75726	18
357.76514	4
358.75513	18
360.75272	5
365.32028	4
366.32315	2
368.77564	2
370.77341	7
372.772	7
390.67764	9
392.67682	14
394.67459	9
416.67526	48
417.67963	3
418.67258	182
419.67697	13
420.67038	268
421.6749	19
422.66852	172
423.6731	12
424.66675	41
433.6781	12
434.68573	4
435.67508	53
436.68463	22
437.673	80
438.68256	37
439.67242	47
440.67877	21
441.67032	10
442.67877	3
