Mass spectrum: 2,3,4,5,6-Pentabromoethylbenzene; GC-EI-FT; MS; Positive
Name: 2,3,4,5,6-Pentabromoethylbenzene
Name: 1,2,3,4,5-pentabromo-6-ethylbenzene
Class: Non-Natural Product; Brominated flame retardant
Formula: C8H5Br5
Exact mass: 495.63081
SMILES: CCC1=C(C(=C(C(=C1Br)Br)Br)Br)Br
InChI: InChI=1S/C8H5Br5/c1-2-3-4(9)6(11)8(13)7(12)5(3)10/h2H2,1H3
Instrument: Thermo Scientific Q Exactive GC Hybrid Quadrupol-Orbitrap
Instrument type: GC-EI-FT
Ms type: MS
Ion mode: POSITIVE
Base peak: 179.95708
m/z	relative intensity
51.02296	13
52.03077	2
53.03864	2
54.04649	2
55.05433	16
57.0699	1
61.00733	14
62.01506	18
63.0229	9
65.03857	2
67.05421	13
69.03356	3
69.06991	6
70.04142	4
73.00738	39
74.01507	399
74.03627	2
75.02302	360
76.03084	37
77.00214	5
77.0386	20
78.91787	25
79.92568	27
80.91575	30
81.06989	9
81.92355	23
82.96163	3
83.99955	21
85.00741	157
85.06486	2
86.0151	274
86.03632	3
87.02299	45
87.04411	3
88.05196	2
88.97034	26
89.03864	9
89.4745	19
89.97829	69
90.01016	9
90.04202	2
90.47346	18
90.97735	49
91.05424	19
93.06991	6
94.93141	9
97.00737	9
98.01533	183
98.10471	1
99.02296	417
99.04412	10
100.03088	421
101.03878	205
101.05979	1
102.04651	61
103.05444	7
104.06202	3
105.07004	1
106.93166	5
106.94916	3
107.08551	8
108.09344	2
109.10115	23
111.0805	4
114.91792	9
115.05423	5
115.92586	13
116.91583	7
116.9334	36
117.06998	8
117.92368	14
118.04134	1
118.93154	39
119.04926	8
122.92471	6
123.92374	2
125.02343	1
126.04665	1
127.05441	1
127.92583	65
128.42973	13
128.93349	255
129.04474	162
129.0699	185
129.4375	77
129.93245	429
130.04822	13
130.07762	3
130.43631	119
130.93138	263
131.08551	6
131.43539	47
131.93945	4
132.94725	8
133.01349	3
135.11697	10
136.05203	5
138.91765	37
139.9258	75
140.91573	42
140.93361	52
141.06982	3
141.92351	75
142.07741	9
142.93149	52
143.08522	2
143.08568	3
143.10687	3
144.09323	4
150.91788	35
151.0244	2
151.07523	3
151.92584	338
152.91559	55
152.93338	136
153.92371	330
153.94118	22
154.93153	102
155.93933	15
156.09363	2
157.10107	4
161.38496	7
162.38368	26
163.14816	2
163.38268	23
163.92546	119
164.38155	7
164.93089	8
164.93317	510
165.92377	152
166.93144	496
166.94945	3
167.88882	13
167.935	46
168.39261	26
168.8874	72
169.39154	77
169.8956	113
170.39049	74
170.89464	73
171.38966	25
171.89356	17
174.06755	3
175.92537	23
176.93344	61
176.9854	3
177.92369	27
177.94138	235
178.93152	80
178.94882	265
179.93901	243
179.95708	999
180.94711	305
181.95458	963
182.9586	85
184.08801	4
185.02666	4
185.13274	3
187.14784	4
190.07761	4
191.00069	6
193.83633	6
194.84402	22
195.83446	8
196.84219	44
198.83962	19
201.84297	6
202.0778	3
202.84164	10
205.10078	4
205.8358	11
206.95525	118
207.83386	21
207.95842	9
208.03111	50
208.07283	1
208.35567	20
208.95332	124
209.01204	35
209.02966	34
209.3544	94
209.83237	10
209.95641	9
210.35364	123
210.85565	8
211.35269	80
212.15568	4
212.35159	19
213.09082	2
217.83638	14
218.84422	19
219.83427	27
220.84206	33
221.83255	14
222.83998	14
227.02162	2
229.10112	2
229.83608	60
230.84486	22
231.83408	123
231.85213	10
232.84261	51
233.83229	56
233.84964	18
234.84036	24
235.84781	9
242.84401	29
243.85184	50
244.8418	61
244.84488	12
245.8503	104
246.84024	30
246.85785	17
247.8476	47
248.98852	2
255.85173	18
256.85718	9
256.85938	47
257.86417	53
257.86749	270
258.85837	96
258.87552	92
259.86365	146
259.86588	544
259.86813	77
260.87103	64
260.87442	173
261.86374	268
261.86713	31
262.87247	84
263.87891	4
265.01907	3
274.75302	10
276.75088	7
284.86536	5
286.86401	7
288.86136	6
300.75021	5
308.75406	3
309.76251	7
310.75238	11
311.76013	15
312.75088	9
313.7583	17
313.76129	6
322.77039	56
324.76843	179
326.76584	166
327.77011	16
328.76437	48
335.77875	14
336.78653	12
337.77573	52
337.79367	75
338.7843	47
339.78833	74
339.79169	209
340.78345	53
341.78546	34
341.78885	190
342.79663	21
343.78824	60
344.79459	4
380.67688	3
401.68872	28
402.69287	8
403.68558	107
404.69308	33
405.68448	165
406.69095	55
407.68286	111
408.69052	30
409.68024	26
410.68811	6
415.70514	1
416.71207	38
417.70242	15
418.70978	151
419.70032	23
419.71646	31
420.70801	225
421.71258	24
421.7149	38
422.70657	140
423.71283	28
424.70316	31
425.71002	7
471.59491	4
480.6073	74
481.6095	3
482.60379	378
483.60706	28
484.60144	723
485.60474	54
486.60001	704
487.60364	48
488.59927	328
489.60318	24
490.59662	60
495.62994	71
497.62878	338
498.6318	25
499.62759	677
500.63037	53
501.62357	619
502.62903	52
503.62219	295
504.62424	30
505.62073	58
506.62299	3
