Mass spectrum: 8:2-FTBr; GC-EI-FT; MS; Positive
Name: 8:2-FTBr
Name: 2-Perfluorooctyl ethyl bromide
Class: Non-Natural Product; Per- and Polyfluoroalkyl Substance (PFAS)
Formula: C10H4BrF17
Exact mass: 525.92249
SMILES: C(CBr)C(C(C(C(C(C(C(C(F)(F)F)(F)F)(F)F)(F)F)(F)F)(F)F)(F)F)(F)F
InChI: InChI=1S/C10H4BrF17/c11-2-1-3(12,13)4(14,15)5(16,17)6(18,19)7(20,21)8(22,23)9(24,25)10(26,27)28/h1-2H2
Instrument: Thermo Scientific Q Exactive GC Hybrid Quadrupol-Orbitrap
Instrument type: GC-EI-FT
Ms type: MS
Ion mode: POSITIVE
Base peak: 77.01971
m/z	relative intensity
51.0041	44
52.0075	1
57.01354	9
59.02919	7
64.01195	4
65.01971	100
66.02314	3
68.99464	343
69.00507	1
69.99808	4
73.99628	1
74.98779	1
75.00412	26
76.01195	4
77.00707	3
77.01971	999
77.0321	5
78.02312	43
78.91783	6
79.03542	2
79.92564	5
80.9158	6
80.99473	1
81.92362	5
82.00252	2
83.01035	4
88.01197	7
89.01976	33
90.02765	4
90.91787	1
91.92566	2
92.91583	1
92.93349	219
92.99474	30
93.01476	6
93.92367	2
93.9369	3
93.99809	1
94.93143	204
95.01035	71
95.93481	2
96.01374	2
96.98968	25
97.02607	3
99.00417	1
99.9931	94
101.00101	4
101.01983	3
104.93353	7
105.94134	6
106.00259	2
106.93147	6
106.9491	169
107.01038	7
107.93929	7
107.95249	4
108.01818	26
108.94707	182
109.02602	40
109.95049	5
110.02939	2
110.92405	49
111.00528	2
111.99313	6
112.92199	49
113.00089	67
114.00431	3
115.01656	68
116.01995	2
116.99583	8
118.99148	188
119.01037	20
119.9949	4
120.0182	3
123.99312	3
124.93973	10
125.00095	2
125.0209	1
126.00875	5
126.93767	10
127.01654	56
128.01993	3
128.91461	22
130.9126	20
130.99144	332
131.99487	11
133.00716	17
134.94402	17
136.94203	27
137.00093	11
137.9454	1
138.00873	2
138.93765	12
139.01656	18
140.01994	2
142.93025	3
142.9915	8
143.99933	1
144.92822	2
145.0071	51
146.01047	2
146.98637	2
147.02277	4
149.98988	2
150.00877	1
150.9977	2
154.93022	18
154.95021	4
154.99142	1
156.92821	17
156.94582	144
157.00711	15
157.94925	5
158.01492	3
158.94376	143
159.02277	2
159.9472	5
161.98985	7
162.99767	17
165.01334	5
168.9882	51
169.00708	8
169.93604	1
169.99164	1
170.01494	1
174.91873	1
174.9977	6
177.01332	15
180.98819	59
181.00711	2
181.99162	2
186.99766	2
188.00546	3
189.01331	6
192.98828	2
195.00392	6
198.99766	1
200.00549	1
207.00392	7
212.99449	6
218.98498	1
219.00398	6
224.99451	6
227.01015	3
230.98514	18
231.00395	1
236.99458	2
239.01024	2
242.98518	4
245.00087	3
248.99455	2
254.98514	1
257.00082	2
262.99152	5
269.00092	8
274.99149	3
277.00705	1
280.982	7
286.99136	2
292.982	4
294.99753	2
306.99759	3
312.98819	25
313.99152	2
318.99756	3
330.97864	3
336.98801	2
342.97858	2
344.99435	1
356.99429	9
362.98492	15
363.98837	1
377.00043	26
378.00384	2
380.97543	13
381.97897	1
394.99109	1
406.99106	4
426.99704	26
428.00064	2
447.00339	5
525.92224	3
527.92017	2
