Mass spectrum: trans-nonachlor; GC-EI-FT; MS; Positive
Name: t-nonachlor
Name: trans-nonachlor
Class: Non-Natural Product; organochlorine
Formula: C10H5Cl9
Exact mass: 439.75880
SMILES: [C@@H]12[C@@H]([C@H](C([C@H]1Cl)Cl)Cl)[C@]3(C(=C([C@@]2(C3(Cl)Cl)Cl)Cl)Cl)Cl
InChI: InChI=1S/C10H5Cl9/c11-3-1-2(4(12)5(3)13)9(17)7(15)6(14)8(1,16)10(9,18)19/h1-5H/t1-,2+,3+,4-,5?,8+,9-
Instrument: Trace 1310 GC, Thermo Scientific; Q Exactive Orbitrap, Thermo Scientific
Instrument type: GC-EI-FT
Ms type: MS
Ion mode: POSITIVE
Retention time: 15.97171
Base peak: 236.8413
m/z	relative intensity
51.02294	18
52.01823	10
52.03075	8
53.00225	5
53.03861	21
54.01004	7
54.03389	27
54.04649	26
55.01783	28
55.04171	13
55.05431	19
56.06206	232
57.03357	23
57.06987	158
58.0733	4
60.0206	12
61.00739	44
62.01521	21
63.0229	29
63.96142	15
64.0308	5
64.9692	26
65.03854	69
66.04651	59
67.04166	2
67.05418	21
68.05772	9
68.06209	19
68.99477	8
69.02107	3
69.06988	30
70.04141	4
70.06513	4
71.08559	23
71.97618	11
72.98395	243
73.00737	20
73.02846	16
74.0152	65
74.98096	73
75.02298	45
75.04372	5
75.99412	8
77.03854	46
78.99574	15
79.05418	13
80.03536	5
80.04957	11
80.06206	10
81.03356	11
81.04473	2
81.06999	47
82.07768	22
82.94492	374
83.0366	15
83.04919	13
83.07297	9
83.08556	16
83.94844	7
83.97614	77
83.99944	43
84.02053	3
84.94214	235
84.98397	87
85.00727	102
85.94542	12
85.97326	23
86.01518	87
86.03622	4
86.93906	33
86.98106	28
86.99956	7
87.02308	16
87.0442	17
88.03078	5
89.03851	8
90.0464	6
92.03088	13
93.05746	14
93.06999	41
94.0413	20
94.53462	11
94.96845	106
95.0127	5
95.97623	75
96.0043	17
96.03384	2
96.05709	14
96.09346	10
96.96541	41
96.98408	151
97.01591	26
97.05233	7
97.98261	61
98.01514	130
98.06021	2
98.10453	7
98.98127	26
98.99976	493
99.023	66
99.08044	3
99.11697	9
99.98508	10
100.00736	262
100.03071	2
100.05183	6
100.99666	183
101.03861	8
101.96446	25
102.00452	100
102.96671	21
103.05424	9
104.0165	10
105.93729	44
106.0134	5
106.04153	26
106.06526	3
106.94508	192
107.04932	11
107.06033	3
107.93417	37
107.97611	106
108.05709	18
108.09322	5
108.94207	142
108.96072	499
108.98392	93
109.00743	17
109.0285	3
109.95513	37
109.97297	86
110.01518	17
110.04739	7
110.06009	8
110.07282	10
110.09642	6
110.10904	12
110.95789	331
110.9811	31
111.02316	23
111.05518	3
111.06805	6
111.08061	5
111.11679	9
112.06319	1
112.08828	8
112.95464	47
113.03844	2
113.05969	6
113.96788	98
113.99632	5
114.04238	1
114.06747	1
114.96298	119
115.00301	14
115.05431	5
115.96176	50
116.05766	16
116.90609	454
116.96954	13
117.4216	34
117.90942	5
117.93719	48
118.04144	5
118.42023	65
118.90308	460
118.94517	93
119.08559	14
119.94356	111
119.97634	54
119.99962	16
120.05718	10
120.90031	148
120.94202	65
120.96065	85
120.98417	88
121.00722	40
121.02846	10
121.07598	2
121.97327	18
122.01514	120
122.95782	55
122.98115	26
122.99981	36
123.0229	126
123.08047	6
124.03085	78
124.06315	1
124.11211	5
124.12476	7
125.03858	52
125.06003	10
125.07119	4
125.13241	3
126.04635	36
126.06764	2
127.05402	10
127.07565	3
128.00754	7
129.93733	186
130.06509	7
130.07774	24
130.42961	8
130.94518	171
131.0856	33
131.42822	18
131.93419	220
131.9529	123
131.97609	90
132.42648	10
132.9231	15
132.95149	206
132.96051	452
132.98395	133
133.01356	25
133.06473	15
133.1013	11
133.9314	14
133.95004	63
133.9684	198
133.99171	26
134.0725	24
134.09668	2
134.93942	28
134.95795	217
134.97641	191
135.08041	8
135.92574	20
135.96573	120
136.00743	25
136.05212	3
136.08833	2
136.1122	8
136.92425	53
136.9547	52
136.97321	127
137.00848	1
137.07091	2
137.93208	46
137.95886	45
137.97742	48
138.1042	4
138.93059	18
138.97058	24
139.05412	3
139.08231	12
139.14836	5
139.97432	12
139.99303	4
139.99347	6
140.90594	488
140.93741	7
141.93723	31
142.9032	466
142.92154	240
142.94501	76
143.91615	31
143.95277	24
144.09325	6
144.9001	152
144.91884	240
144.94223	47
145.10109	15
145.91309	17
145.95003	10
145.96848	9
146.91573	85
146.93852	17
146.98651	5
146.99985	89
147.06528	4
147.91042	2
147.96547	14
148.00749	27
148.05196	9
148.07565	9
148.08821	8
148.11192	6
148.9332	92
148.99672	33
149.02351	14
149.93172	131
150.12756	11
150.93039	92
150.96226	6
151.08678	2
151.929	23
152.11963	3
152.90607	22
153.07008	15
153.91359	19
154.07768	9
154.90317	23
154.9218	16
154.94527	35
155.06059	9
155.91068	28
156.91859	22
156.93761	69
156.96077	91
156.98392	37
157.06471	4
157.95012	12
157.99167	142
158.09671	9
158.10898	4
158.93431	41
158.95737	56
158.99992	152
159.1167	4
159.98897	42
160.00746	357
160.08849	4
160.95459	6
160.99692	41
161.0105	43
161.09619	3
162.00456	119
162.0672	3
162.9695	17
163.11198	4
164.90598	178
164.98561	7
165.06979	15
165.1273	2
166.90318	188
166.92171	110
166.94488	47
167.03407	5
167.08553	10
167.92978	11
167.95247	45
168.02559	9
168.05307	10
168.08931	7
168.89976	54
168.91867	119
168.93755	155
168.96053	51
169.03363	7
169.0761	2
169.10144	9
169.92311	5
169.94965	28
169.96864	86
170.9157	30
170.93424	109
170.95767	36
171.08011	9
171.96564	60
172.03825	8
172.93127	31
172.96666	33
173.13219	8
173.91673	10
173.95428	20
174.04213	7
175.14798	1
175.93251	5
175.95129	6
177.91411	22
178.87959	22
178.92198	5
178.96492	12
179.00099	2
179.92937	44
179.96436	3
180.961	65
181.10078	3
181.9263	41
181.96832	43
182.95786	50
182.97652	99
183.11682	2
183.96556	31
184.12503	9
184.97337	45
185.15376	5
186.1039	2
187.1479	2
189.09138	6
190.92149	415
191.00082	38
191.925	34
191.95284	28
192.00066	10
192.91844	395
192.93791	17
192.96089	71
192.99762	7
193.01704	9
193.04997	4
193.92188	49
193.96823	577
194.91554	137
194.93454	13
194.95763	50
194.97618	119
195.11653	6
195.96542	376
195.98381	57
196.97418	51
197.13229	5
197.94495	10
197.9622	60
197.98174	33
199.94188	21
200.88298	284
201.89073	37
201.93924	2
202.07791	13
202.87961	367
202.92156	45
203.88765	45
203.91109	4
203.92978	299
204.87711	188
204.91887	40
204.93303	43
205.89931	13
205.92616	291
205.99915	9
206.87381	39
206.92821	49
207.03206	78
207.9238	99
208.0314	16
208.9251	26
209.02934	4
209.89358	3
211.14766	3
213.16348	7
213.89021	64
213.95323	6
214.92142	4
215.88768	75
215.92944	27
216.93753	164
217.8848	31
217.92622	21
218.93442	149
220.93182	46
222.93695	4
222.98245	56
224.88255	29
224.97942	32
225.89044	59
226.87932	50
226.89877	64
227.88789	81
227.92938	140
227.96448	6
228.89577	87
228.93762	62
229.88478	33
229.92686	142
229.94554	293
230.89261	44
230.93533	78
230.94817	17
231.92413	36
231.94214	253
232.94542	19
233.9389	85
234.84401	621
235.85188	193
236.84126	999
237.84935	315
237.8903	65
237.96327	2
238.83835	642
238.84132	36
238.89885	43
239.84634	196
239.86056	8
239.88762	79
240.83476	209
240.896	59
241.81262	12
241.84312	66
241.85796	32
241.88528	33
242.832	29
242.8658	13
242.89293	31
243.85469	13
244.86226	17
245.85133	1
247.85164	18
248.98848	8
249.84889	32
250.89813	78
252.8958	107
254.89188	63
256.8902	10
258.94095	20
260.85907	329
261.86255	19
261.92624	2
262.85684	525
263.86044	32
263.90637	221
263.92255	6
264.85348	334
264.89517	19
265.02014	3
265.85684	23
265.90329	302
266.85059	103
266.91153	30
266.99927	6
267.88312	2
267.90076	138
269.81232	290
269.88004	1
269.89804	27
271.80948	524
271.87692	5
273.80698	423
273.86661	27
274.81036	23
274.82999	8
274.85684	22
275.80426	195
275.86462	35
275.9371	5
276.82587	21
276.94482	10
277.80142	43
277.86105	21
277.93442	10
278.82321	16
279.85916	7
281.05139	2
283.02918	9
284.8175	17
286.81433	8
286.87561	25
288.8533	18
288.87308	40
290.86884	22
295.10364	4
296.81699	4
297.86667	204
298.87598	77
299.86453	350
300.87253	127
301.86145	216
302.86987	83
303.70801	8
303.85818	67
304.86603	18
309.89813	1
310.90659	5
311.89444	6
312.83081	21
324.98666	8
332.83524	50
333.84348	17
334.83267	80
335.84119	34
336.83096	61
336.8476	39
337.83853	27
338.84543	30
344.86639	4
346.86343	5
355.07065	5
368.81122	19
370.80948	45
370.82843	19
372.80637	36
372.82492	47
374.80377	22
374.8215	45
376.8194	23
404.78867	317
405.79364	32
406.78686	792
407.7904	74
408.78448	919
409.78644	87
410.78122	559
411.78384	55
412.77695	232
413.78244	25
414.77393	49
414.82336	6
415.81595	14
416.8212	8
417.81403	9
420.81387	3
422.81091	9
