Mass spectrum: D3-Ph3; GC-EI-FT; MS; Positive
Name: D3-Ph3
Name: 2,4,6-Trimethyl-2,4,6-triphenyl-1,3,5,2,4,6-trioxatrisilinane
Formula: C21H24O3Si3
Exact mass: 408.10332
SMILES: C[Si]1(O[Si](O[Si](O1)(C)C2=CC=CC=C2)(C)C3=CC=CC=C3)C4=CC=CC=C4
InChI: InChI=1S/C21H24O3Si3/c1-25(19-13-7-4-8-14-19)22-26(2,20-15-9-5-10-16-20)24-27(3,23-25)21-17-11-6-12-18-21/h4-18H,1-3H3
Instrument: Thermo Scientific Q Exactive GC Hybrid Quadrupol-Orbitrap
Instrument type: GC-EI-FT
Ms type: MS
Ion mode: POSITIVE
Base peak: 315.032
m/z	relative intensity
62.98966	2
74.0151	4
77.03854	20
79.05422	9
87.94308	3
91.05421	102
102.04641	2
105.06989	6
115.05423	16
117.01548	4
120.97715	8
126.04637	11
127.51429	8
132.92276	8
135.02602	17
137.04167	10
139.05414	11
141.06981	6
146.93835	40
150.00406	64
151.05414	26
152.06194	94
153.06978	36
154.07761	28
157.01189	16
158.01749	14
162.96962	11
164.98215	35
165.06972	115
166.52106	18
166.9978	6
168.01459	7
171.02589	2
176.98524	5
178.99776	17
180.02219	13
181.04663	15
182.99271	10
185.04156	4
189.02747	23
191.03102	4
192.98016	26
194.95943	18
196.06563	21
197.04152	76
198.04489	22
199.0572	6
204.53671	1
207.0322	12
208.95392	32
210.96957	6
213.07283	21
214.07616	4
226.96448	7
236.9852	6
239.0009	35
240.98018	20
251.00085	2
253.01648	166
254.9958	118
255.99538	27
257.04477	21
259.02405	3
271.06049	11
273.03973	18
299.00088	13
301.01642	10
313.01648	35
315.03195	999
317.02884	119
327.03214	3
333.0426	105
