Mass spectrum: Celestolide; GC-EI-FT; MS; Positive
Name: Celestolide
Name: 1-[6-(1,1-Dimethylethyl)-2,3-dihydro-1,1-dimethyl-1H-inden-4-yl]ethenone
Class: Non-Natural Product; Ketone
Formula: C17H24O
Exact mass: 244.18272
SMILES: CC(=O)C1=C2CCC(C2=CC(=C1)C(C)(C)C)(C)C
InChI: InChI=1S/C17H24O/c1-11(18)14-9-12(16(2,3)4)10-15-13(14)7-8-17(15,5)6/h9-10H,7-8H2,1-6H3
Instrument: Thermo Scientific Q Exactive GC Hybrid Quadrupol-Orbitrap
Instrument type: GC-EI-FT
Ms type: MS
Ion mode: POSITIVE
Base peak: 229.1586
m/z	relative intensity
50.01514	1
50.44124	1
50.68996	1
50.69031	1
51.01786	2
51.02296	8
51.30241	1
51.52464	1
51.65296	1
51.99594	1
52.02631	1
52.0308	2
53.03862	8
53.31916	1
53.6073	1
54.03387	2
54.04644	4
55.01789	17
55.05427	37
56.02119	1
56.0257	1
56.05762	2
56.06208	10
56.50557	1
57.03353	4
57.06991	58
57.24315	1
57.52686	1
58.04131	1
58.07327	3
58.07365	1
59.04916	3
59.12167	2
59.24819	1
60.02061	4
61.0073	2
61.02845	8
61.33228	1
61.74458	1
62.01514	2
63.02294	9
63.19811	1
63.37402	1
63.96139	1
64.03081	4
64.53248	1
65.0386	32
66.04198	1
66.04645	8
67.04166	1
67.05426	51
68.0257	2
68.04951	2
68.05761	2
68.06211	7
68.28137	1
68.99468	2
69.03355	5
69.06992	27
69.52686	1
70.04138	5
70.06519	1
70.07325	2
70.07775	11
71.03857	1
71.04916	3
71.08558	7
72.08891	1
73.02844	13
73.04685	15
73.06483	1
74.01514	9
74.03629	4
74.35754	1
75.01036	1
75.01848	1
75.02298	10
75.0261	3
75.71909	1
75.74888	1
75.94365	1
75.94949	1
76.01818	1
76.03079	18
76.81223	1
77.00538	1
77.03411	2
77.03858	103
78.02824	2
78.03385	2
78.04196	7
78.04644	93
78.05901	1
79.00105	1
79.03605	2
79.04165	3
79.0498	7
79.05424	106
80.02567	2
80.04949	8
80.0576	7
80.06208	13
80.99669	1
81.02789	1
81.03353	4
81.05733	2
81.06547	1
81.06992	63
81.14949	1
81.92355	1
82.04132	3
82.06517	6
82.07327	4
82.07774	16
82.53466	1
83.03638	1
83.03867	3
83.04916	9
83.07294	1
83.08555	21
84.02058	1
84.02825	3
84.057	3
84.08081	1
84.08889	2
84.09341	5
85.02846	6
85.03605	2
85.06481	1
85.10122	8
85.79842	1
86.01509	3
86.03625	7
86.04387	2
87.02299	5
87.04411	15
87.65785	1
88.02412	1
88.02635	1
88.03079	2
88.05192	9
88.10465	1
89.02046	3
89.0386	27
89.0597	1
90.04197	2
90.04646	6
91.04166	1
91.05423	270
92.0439	41
92.04949	3
92.05762	20
92.0621	32
92.54559	6
93.03358	1
93.04723	1
93.05177	45
93.05739	4
93.06544	2
93.06995	31
93.55341	5
94.04138	5
94.06065	1
94.06517	4
94.07327	3
94.07779	8
95.04921	10
95.07293	1
95.08558	26
96.03387	3
96.04445	1
96.04642	1
96.05703	4
96.08078	3
96.08888	2
96.09339	7
97.0285	3
97.06487	5
97.08866	1
97.10126	11
98.01514	2
98.03631	26
98.0601	1
98.0727	5
98.1091	1
99.02293	1
99.04411	12
99.05172	2
99.11683	1
99.55573	1
99.9931	1
100.04739	1
100.05192	1
100.05956	1
101.03865	2
101.04919	3
101.05976	6
102.04647	26
102.05702	4
102.06757	1
103.04167	2
103.04975	2
103.05428	65
104.02563	2
104.04947	2
104.05766	5
104.06209	99
104.18707	1
104.46325	1
104.90938	1
104.92154	1
105.03358	8
105.04481	15
105.05739	1
105.0655	10
105.06995	69
105.64716	1
106.04137	8
106.06518	7
106.0733	6
106.07777	7
107.03653	1
107.0492	11
107.06656	1
107.06738	10
107.07298	2
107.08558	13
107.56901	2
107.96306	1
108.03719	1
108.04447	1
108.05702	4
108.06824	1
108.08075	2
108.09341	5
109.06487	8
109.08415	1
109.10126	13
109.73209	1
110.03628	1
110.06004	1
110.0727	2
110.09646	1
110.10904	3
111.02301	1
111.04414	5
111.08045	2
111.1169	5
111.53364	1
112.0519	1
112.08829	1
113.02332	1
113.03858	4
113.05972	3
114.04193	1
114.04645	3
114.0631	1
114.0676	14
115.00308	1
115.03906	6
115.05424	234
115.07539	4
115.0778	1
115.63845	1
116.04961	3
116.05763	26
116.0621	36
117.05738	5
117.06548	4
117.06989	142
117.98998	1
118.04133	2
118.05258	1
118.06067	1
118.06519	3
118.07327	13
118.07774	35
118.99156	1
119.04916	3
119.06047	3
119.073	2
119.0811	4
119.0856	29
120.04442	1
120.05705	4
120.08081	3
120.08887	3
120.09341	7
121.02845	2
121.06485	8
121.07592	1
121.08414	1
121.08862	2
121.10123	16
122.03622	2
122.07269	4
122.07371	1
122.09641	2
122.10455	1
122.10903	4
123.0441	3
123.08049	4
123.11688	6
124.05199	1
124.08826	1
124.12466	1
125.02338	2
125.03862	2
125.05974	2
125.13253	3
126.03112	3
126.0452	1
126.04647	14
126.0676	13
127.03899	3
127.04169	1
127.04974	1
127.05429	20
127.07533	2
128.04834	1
128.0495	4
128.06203	320
128.08316	2
129.04472	3
129.05467	1
129.05731	2
129.06544	35
129.06985	255
129.09102	2
129.99348	1
130.04134	1
130.04816	1
130.06065	1
130.06522	8
130.06879	2
130.0733	26
130.07777	67
130.99149	1
131.04921	12
131.06035	1
131.06868	1
131.07301	3
131.08115	8
131.08553	319
132.04445	1
132.05255	1
132.05701	4
132.08086	5
132.08894	31
132.09337	7
133.01363	4
133.05228	1
133.06349	1
133.06483	8
133.07602	1
133.08862	1
133.09221	3
133.10124	15
134.01312	1
134.01857	1
134.03627	6
134.06012	1
134.07269	2
134.09647	2
134.10454	3
134.10909	4
135.04407	5
135.06245	3
135.08044	8
135.09172	1
135.11684	8
135.23959	1
136.0519	2
136.08385	1
136.11201	2
136.12027	1
136.12473	3
137.04179	2
137.05959	1
137.09613	2
137.13251	2
138.12766	1
139.03908	1
139.05431	17
139.07542	2
139.11183	1
140.04948	3
140.05753	2
140.06204	3
140.08322	1
140.37102	1
141.05728	1
141.06985	193
141.99051	1
142.04128	1
142.06244	2
142.06519	2
142.07329	22
142.07776	65
142.39322	1
143.04916	2
143.06035	2
143.07031	5
143.07295	4
143.07663	1
143.08122	6
143.08554	131
144.05698	4
144.06812	1
144.07368	1
144.08084	6
144.08893	17
144.09337	18
145.06483	18
145.07613	2
145.08414	1
145.08865	2
145.09224	1
145.10118	100
145.96849	2
146.06006	1
146.06818	1
146.07266	24
146.09639	3
146.10457	11
146.10901	2
146.93855	1
147.04401	2
147.06564	7
147.07597	2
147.08046	18
147.1042	1
147.11682	3
148.05186	1
148.06511	1
148.08382	3
148.0883	1
148.11215	1
148.12462	3
149.02332	2
149.04494	3
149.05977	2
149.0961	3
149.13251	3
149.99957	1
150.04433	1
150.04643	3
150.06747	2
150.14041	1
151.02415	3
151.03893	1
151.0542	5
151.07535	2
151.11172	1
152.06206	46
152.08311	1
152.53561	1
153.05466	1
153.05722	2
153.06541	8
153.06987	88
153.091	2
153.54715	1
154.06247	4
154.06505	4
154.07323	12
154.0777	36
155.04904	2
155.06036	59
155.07027	3
155.08115	6
155.08551	100
156.05695	2
156.06377	6
156.08081	5
156.08893	14
156.09337	73
157.06482	17
157.07605	4
157.08853	3
157.09222	1
157.09674	11
157.1012	37
158.06825	2
158.07265	10
158.08372	1
158.09641	2
158.10458	5
158.10901	7
159.04414	1
159.08047	10
159.10439	1
159.11685	33
160.05196	1
160.08376	2
160.0882	2
160.11211	1
160.12022	4
160.1246	1
161.05972	4
161.09605	3
161.13239	2
162.06755	1
162.1039	2
162.14034	1
162.53722	1
163.05415	3
163.0753	2
163.14812	1
164.05782	1
164.06221	3
164.08316	1
165.06989	40
166.06511	3
166.07324	8
166.0777	9
167.07289	3
167.08101	2
167.08553	20
168.05698	1
168.06822	1
168.08073	2
168.08884	2
168.09335	10
169.06473	4
169.07593	2
169.08859	2
169.10117	24
169.62877	1
170.0602	1
170.06813	1
170.07269	3
170.09644	4
170.10466	4
170.10899	22
171.08043	12
171.10403	1
171.11235	3
171.11681	75
172.08391	1
172.08821	5
172.11229	1
172.12012	9
172.12457	4
173.05353	1
173.05966	1
173.09601	661
173.11983	1
173.1235	1
173.13248	4
173.13759	1
174.06758	1
174.09944	92
174.12758	1
175.07536	2
175.1028	4
175.11168	1
175.14809	1
176.0621	3
176.08315	1
176.10355	1
176.98537	2
177.0573	1
177.06987	1
177.09091	2
178.06519	1
178.07773	14
178.96475	1
179.03375	1
179.06026	3
179.08089	2
179.08548	9
179.17935	1
180.07822	1
180.08067	4
180.08873	2
180.09329	4
181.06479	2
181.07584	1
181.08604	1
181.08849	3
181.10112	8
182.09413	1
182.09642	2
182.10452	2
182.10902	5
182.88124	1
182.8972	1
183.03574	1
183.08047	9
183.09166	1
183.10416	1
183.11685	9
184.08377	1
184.0883	5
184.11203	1
184.12	2
184.12453	4
185.0266	1
185.0961	28
185.10713	1
185.12811	1
185.13248	18
186.0994	3
186.10393	5
186.13576	2
186.14035	8
187.11176	10
187.14812	60
188.06169	1
188.10426	2
188.11734	1
188.11955	13
188.15146	11
189.06992	3
189.12285	1
189.12727	1
189.15485	1
189.16383	1
190.07759	2
190.09866	1
190.83069	1
191.00107	4
191.07286	2
191.08548	4
191.10657	3
191.14313	1
192.00058	1
192.08058	1
192.09332	2
192.98021	2
193.04993	6
193.08865	2
193.10114	3
194.04951	1
194.09639	2
194.10898	2
195.0804	1
195.1041	1
195.11681	4
196.11201	1
196.12469	7
197.09605	3
197.13237	2
198.10378	3
199.03062	2
199.11171	7
199.20847	1
200.10439	1
200.11502	2
200.15594	1
201.12737	27
201.16374	14
202.04948	1
202.07762	2
202.13077	5
202.16702	2
203.08543	1
203.13388	1
203.17949	1
204.11433	1
205.01659	1
205.10103	2
207.10194	7
207.11674	1
208.0731	4
208.11201	1
208.12454	2
209.08099	2
209.13248	2
210.14024	1
210.99089	1
211.06049	2
211.11145	1
211.14813	5
212.0831	4
213.08656	1
213.09116	5
213.12741	14
213.16396	1
214.09427	2
214.13069	3
214.13507	1
215.08549	2
215.17946	2
215.48114	1
216.08072	1
216.08894	1
219.11703	1
219.17451	1
220.1246	1
221.08434	4
222.14053	1
225.04295	6
226.04242	2
226.04608	1
226.09869	1
227.08556	1
227.14322	4
227.17928	2
228.09346	1
228.14665	1
228.15073	1
229.0938	1
229.15863	999
229.22189	1
229.22491	1
230.07188	1
230.13026	1
230.16208	162
231.16562	11
234.10237	1
236.08292	1
237.1514	1
238.09929	1
240.29326	1
241.19513	1
242.16656	2
242.20242	1
243.17455	1
244.05801	1
244.18213	419
244.25182	1
245.18561	75
246.18909	9
248.98866	1
251.81229	1
252.98352	1
253.01677	1
253.10126	1
258.12531	1
259.12909	1
265.01996	2
266.99927	3
267.06915	1
267.99878	1
270.12341	1
273.09869	1
277.07779	4
278.95163	1
281.05124	7
282.05051	2
299.06161	2
301.05881	1
317.62424	2
319.24109	1
327.03528	1
333.91479	1
341.01776	1
342.36224	1
346.78415	1
398.22568	1
