Mass spectrum: PCB-18; GC-EI-FT; MS; Positive
Name: PCB-18
Name: 2,2',5-Trichlorobiphenyl
Class: Non-Natural Product; PCB
Formula: C12H7Cl3
Exact mass: 255.96133
SMILES: C1=CC=C(C(=C1)C2=C(C=CC(=C2)Cl)Cl)Cl
InChI: InChI=1S/C12H7Cl3/c13-8-5-6-12(15)10(7-8)9-3-1-2-4-11(9)14/h1-7H
Instrument: Trace 1310 GC, Thermo Scientific; Q Exactive Orbitrap, Thermo Scientific
Instrument type: GC-EI-FT
Ms type: MS
Ion mode: POSITIVE
Retention time: 11.23482
Base peak: 186.0228
m/z	relative intensity
50.59379	1
53.03862	3
54.39897	1
55.05431	4
55.24653	3
55.74586	2
56.06206	10
57.06988	21
58.07331	1
60.02058	1
61.00736	4
62.01519	7
63.02288	4
63.96141	2
63.9886	3
64.48791	2
67.05419	2
68.06209	1
72.98395	5
73.00736	4
74.01519	40
74.51908	2
74.98094	2
75.02297	100
75.52472	8
76.03076	7
77.03854	5
78.99572	1
80.00349	9
81.00204	3
81.07	2
83.9761	4
83.99945	2
84.02053	2
84.984	6
85.00732	9
86.0152	20
86.98103	2
87.02308	20
88.03076	1
89.53005	12
90.04649	1
91.05434	1
92.00343	17
92.06216	3
92.5051	5
93.01124	112
93.51296	15
94.00974	34
94.51146	4
95.08559	2
95.97626	1
96.00427	1
96.98411	9
97.00716	3
97.98258	3
98.01515	38
98.98098	2
99.02303	51
100.03069	10
101.009	2
101.03856	4
106.51046	14
107.01217	1
107.50913	4
107.97605	4
108.09335	2
108.98393	8
109.00739	5
109.10127	3
109.99196	79
110.01518	11
110.49357	17
110.99022	55
111.02284	20
111.49424	11
111.98872	8
113.03854	8
114.0466	2
115.97078	1
119.99959	3
120.98409	4
121.00734	4
122.01522	23
122.10886	1
122.98111	2
122.99978	2
123.02287	45
123.99506	3
124.03091	26
124.99349	2
125.03855	40
126.04633	16
127.05409	1
127.98036	27
128.4818	3
128.97879	28
129.04494	4
129.48026	2
129.97704	8
132.09354	1
132.98401	4
133.0136	3
133.99182	3
134.99956	3
135.02272	2
136.00745	19
136.11215	1
136.12459	2
137.03857	5
138.00452	6
141.06999	1
144.9839	2
145.96844	2
146.01531	3
146.99947	9
147.02293	3
147.96542	1
148.00745	5
148.03062	6
148.99658	3
149.02353	1
149.0387	105
150.0042	1
150.04613	547
150.05351	4
151.04936	30
151.05435	331
152.05769	50
153.07004	3
158.99942	11
160.00754	31
160.99675	3
161.011	3
162.0047	9
163.00558	3
167.04916	4
169.0649	27
169.96867	8
170.06815	3
170.99962	1
171.9657	5
172.00734	1
173.01486	1
177.04482	5
179.06016	72
180.0634	8
182.97588	2
182.9998	2
184.00711	23
185.0152	27
186.00442	8
186.02284	999
186.02353	420
186.03302	6
187.0128	9
187.02637	128
188.02	323
189.02377	42
190.02698	2
191.00085	2
193.96834	6
195.9655	4
195.98383	1
203.02544	3
206.97607	2
207.03214	6
208.97286	1
213.02154	11
214.02457	1
215.01862	3
219.98412	24
220.99182	254
220.99535	5
221.98084	13
221.99464	34
222.98883	159
222.9924	4
223.99171	21
224.98582	26
225.9888	3
236.68095	2
255.96135	283
255.97664	2
256.96432	36
257.95758	275
258.96115	36
259.9548	90
260.95862	12
261.95239	9
281.05118	1
