Mass spectrum: 8:2 FTI; GC-EI-FT; MS; Positive
Name: 8:2 FTI
Name: 2-(perfluorooctyl)ethyl iodide
Class: Non-Natural Product; Fluoroalkyl iodide
Formula: C10H4F17I
Exact mass: 573.90863
SMILES: C(CI)C(C(C(C(C(C(C(C(F)(F)F)(F)F)(F)F)(F)F)(F)F)(F)F)(F)F)(F)F
InChI: InChI=1S/C10H4F17I/c11-3(12,1-2-28)4(13,14)5(15,16)6(17,18)7(19,20)8(21,22)9(23,24)10(25,26)27/h1-2H2
Instrument: Thermo Scientific Q Exactive GC Hybrid Quadrupol-Orbitrap
Instrument type: GC-EI-FT
Ms type: MS
Ion mode: POSITIVE
Base peak: 140.9196
m/z	relative intensity
50.01516	1
51.00415	142
51.02296	1
56.04953	2
65.0386	5
66.04199	6
67.05426	2
69.06992	1
70.07776	7
73.04686	11
74.98775	11
78.00497	3
79.0022	1
79.05427	5
80.0621	10
81.01763	1
81.03356	2
81.06994	8
83.08557	14
88.01831	6
88.95103	4
89.01981	7
92.99481	13
94.05267	2
95.01041	35
96.00425	7
96.02067	5
96.98971	65
97.10131	4
98.10909	1
104.04955	4
105.99922	6
108.01823	22
108.06831	2
108.09342	4
109.02606	22
111.11691	5
111.99311	23
113.00098	55
115.01665	44
116.9959	73
117.9902	1
118.99157	205
119.01043	74
119.06049	4
119.9976	9
120.06828	1
123.08052	1
126.90401	792
127.01662	131
127.05436	3
127.91182	884
128.07548	1
129.04482	1
130.99155	736
131.06047	1
132.08089	4
133.0136	21
135.01048	6
137.00854	24
137.04178	1
137.13254	1
138.98785	2
139.01663	27
140.04956	2
140.91963	999
142.99153	28
145.0072	64
145.07606	2
146.93849	2
146.98644	12
147.06564	3
147.11685	3
149.98991	3
151.02411	20
151.05431	2
152.91968	10
153.92757	20
154.93524	490
154.98257	8
155.00026	10
155.08556	6
157.00719	55
158.91019	116
162.96976	5
162.99774	13
163.05428	1
168.98831	140
169.00728	23
170.09653	1
171.01396	2
171.03157	1
177.01347	41
180.08075	3
180.94395	1
180.98825	112
186.99786	5
189.02188	25
190.07774	2
194.99602	38
202.91638	69
204.93227	59
207.01354	43
207.10193	1
212.98778	14
219.00418	19
224.99445	38
230.00114	1
230.98524	56
230.99831	19
251.0047	4
268.99637	75
281.0513	111
282.05081	22
283.03064	9
283.04804	16
312.98825	120
341.01782	1
356.99451	97
362.98511	127
377.00046	96
380.97562	110
426.99719	452
573.90918	644
574.91382	66
