Mass spectrum: PCB-187; GC-EI-FT; MS; Positive
Name: PCB-187
Name: 2,2',3,4',5,5',6-Heptachlorobiphenyl
Class: Non-Natural Product
Formula: C12H3Cl7
Exact mass: 391.80544
SMILES: C1=C(C(=CC(=C1Cl)Cl)Cl)C2=C(C(=CC(=C2Cl)Cl)Cl)Cl
InChI: InChI=1S/C12H3Cl7/c13-5-2-7(15)6(14)1-4(5)10-11(18)8(16)3-9(17)12(10)19/h1-3H
Instrument: Trace 1310 GC, Thermo Scientific; Q Exactive Orbitrap, Thermo Scientific
Instrument type: GC-EI-FT
Ms type: MS
Ion mode: POSITIVE
Retention time: 19.639
Base peak: 323.864
m/z	relative intensity
51.02293	5
52.03076	2
53.03863	3
54.04647	3
55.01785	3
55.0417	1
55.05423	15
56.02572	3
56.06208	54
57.03358	4
57.0699	42
58.04136	2
59.04913	2
61.00727	27
62.0151	7
63.02289	3
63.96146	6
64.03081	2
67.00736	6
67.05421	3
69.05741	1
69.0699	2
71.9762	4
71.98783	5
73.00738	94
73.0285	6
73.51115	28
74.0152	32
75.02613	1
75.9437	1
77.03857	9
77.98772	12
79.05421	8
80.0496	4
80.0621	10
80.46502	9
80.96414	9
81.0336	3
81.04475	2
81.05727	2
81.46358	8
82.00491	4
82.0777	1
82.53474	3
82.94492	9
83.01267	2
83.97617	38
83.98792	7
83.99949	51
84.02058	3
84.08079	3
85.00735	94
85.0284	2
85.97327	11
86.01526	42
86.03622	2
86.5065	4
87.0229	5
88.05184	2
89.98779	42
90.49181	73
90.99564	54
91.49027	28
91.99419	8
92.05772	4
92.06218	10
93.04495	2
93.07002	1
94.96825	14
95.97603	24
96.00431	12
96.09351	3
96.99387	14
97.00747	35
97.97325	7
98.0152	85
99.0442	2
100.00575	6
102.04662	4
102.96674	2
105.06551	4
105.06987	2
105.9373	6
106.94515	34
106.96826	6
107.07287	2
107.08566	4
107.47235	16
107.97612	134
107.99959	39
108.081	1
108.48006	62
108.94205	23
108.98389	62
109.00745	99
109.1013	2
109.47871	35
109.9734	46
110.01518	72
110.98112	11
115.00304	2
115.05436	1
117.06979	2
117.93721	17
118.94498	17
118.96854	12
119.9344	13
119.97639	35
119.99965	82
120.94205	12
120.97739	17
121.00738	61
121.97328	12
122.01525	105
123.0229	20
124.01534	2
124.05202	1
125.05957	2
125.46057	33
125.96442	298
126.0464	1
126.46631	75
126.96313	284
127.46484	47
127.9617	104
128.46309	12
129.93738	9
130.06505	1
130.94518	42
130.96852	8
130.99149	1
131.94357	20
131.97617	157
131.99937	38
132.09344	1
132.94202	25
132.98398	55
133.01283	35
133.01366	43
133.97342	53
134.01508	14
134.07253	2
134.4658	7
134.96974	16
134.98109	15
134.99289	3
135.02277	12
135.0442	4
135.96829	9
136.08835	4
136.12457	3
137.09633	2
137.44894	2
138.44762	7
140.04952	1
140.90601	7
141.93727	36
142.07759	2
142.94496	162
142.96835	8
143.44925	39
143.94356	172
143.97592	40
143.99962	80
144.0809	2
144.09325	2
144.44788	51
144.94231	113
144.98399	34
145.00738	79
145.44641	21
145.94058	15
145.95007	26
145.97324	12
146.01537	342
146.07272	1
146.9387	6
146.98079	9
147.02287	149
147.06523	2
148.02635	21
148.91771	6
151.95013	10
152.45401	10
152.94872	15
153.45253	17
153.93718	10
154.45151	3
154.9451	17
155.9342	4
155.97601	69
156.94182	11
156.98404	44
157.10118	1
157.97311	24
157.9917	24
158.45046	7
158.98112	11
159.98909	6
160.05156	2
160.08852	2
160.93326	508
160.95407	4
161.13231	1
161.4351	69
161.93169	813
162.43378	102
162.9305	500
162.9695	1
163.43225	57
163.92897	158
164.43043	17
164.90604	3
164.92757	23
164.94925	2
164.98567	2
165.93707	19
165.94861	1
166.94482	33
167.93448	11
167.95258	11
167.97653	12
168.94232	21
168.98825	14
169.06491	3
170.0722	1
170.0966	2
170.10912	2
170.9997	10
171.11676	1
172.08794	3
174.104	4
177.1638	2
177.9135	30
177.98483	2
178.41774	41
178.9124	52
179.00093	2
179.41644	76
179.91066	49
179.97607	53
180.4151	59
180.90939	18
180.98389	92
181.41322	24
181.90797	7
181.97316	15
181.99162	372
182.98129	29
182.99521	49
183.98898	120
184.99231	16
185.09633	2
185.13283	1
189.164	2
190.9449	10
191.0009	8
191.95287	57
192.94226	4
192.96095	14
192.99765	2
193.0502	2
193.95021	36
194.97693	2
195.90222	95
196.40424	14
196.9008	225
197.40219	31
197.89886	218
198.40097	29
198.89769	128
199.39916	16
199.89641	30
200.89452	6
201.91385	11
202.07805	1
202.92172	20
203.91112	11
203.92987	3
204.9189	18
204.96054	17
206.91545	5
206.95778	12
207.03215	46
208.03137	5
209.02884	3
214.92145	17
214.94511	9
215.95248	174
216.91884	19
216.96094	194
217.94965	100
217.96362	30
218.91548	6
218.95819	123
219.94736	14
219.96147	17
220.95482	17
225.91324	7
226.92163	10
227.91095	7
228.91887	9
229.9269	7
234.97163	15
236.88245	6
237.89043	15
238.88007	10
239.88786	15
240.87697	3
244.96726	8
246.96405	3
250.92189	32
251.91228	3
251.9295	470
252.91867	27
252.93227	58
253.92642	455
254.91623	11
254.93027	56
255.92406	148
256.9267	14
257.92099	15
261.89102	13
263.88809	16
265.02017	2
265.88483	8
268.99606	1
271.85165	7
273.84851	14
275.84622	8
281.0517	8
285.89124	53
286.89798	108
287.88748	75
287.90192	14
288.89578	146
289.8851	34
289.9035	15
290.8931	70
291.8819	8
291.90195	8
292.88944	13
303.90131	2
305.89712	4
314.90344	1
321.86673	635
322.86984	86
323.84207	1
323.86404	999
324.86722	130
325.86108	624
326.86389	77
327.85913	207
328.86157	25
329.85464	28
341.01837	1
356.83685	144
357.83917	18
358.83313	263
359.83286	8
359.83652	39
360.82968	203
361.8335	31
362.82797	81
363.83142	10
364.82416	19
391.80512	178
392.80875	24
393.80209	390
394.8042	52
395.79974	378
396.80313	46
397.79559	194
398.80045	25
399.79379	60
401.78958	10
