Mass spectrum: PCB-153; GC-EI-FT; MS; Positive
Name: PCB-153
Name: 2,2',4,4',5,5'-Hexachlorobiphenyl
Class: Non-Natural Product; PCB
Formula: C12H4Cl6
Exact mass: 357.84442
SMILES: C1=C(C(=CC(=C1Cl)Cl)Cl)C2=CC(=C(C=C2Cl)Cl)Cl
InChI: InChI=1S/C12H4Cl6/c13-7-3-11(17)9(15)1-5(7)6-2-10(16)12(18)4-8(6)14/h1-4H
Instrument: Trace 1310 GC, Thermo Scientific; Q Exactive Orbitrap, Thermo Scientific
Instrument type: GC-EI-FT
Ms type: MS
Ion mode: POSITIVE
Retention time: 18.29457
Base peak: 289.9035
m/z	relative intensity
53.03863	11
54.49084	11
55.01785	10
55.04172	2
55.05422	25
56.06208	26
57.0699	34
61.00727	20
63.02294	4
63.96144	6
64.03082	3
66.02404	20
66.04639	1
67.05421	15
70.07778	6
71.0128	3
71.97603	14
72.47432	10
73.00738	46
73.51131	30
74.0152	35
74.03623	1
74.9862	16
78.04191	2
78.04653	15
80.04941	3
80.0621	4
81.05728	4
81.07002	10
82.00491	3
82.06512	4
83.03663	2
83.04922	6
83.08559	5
83.97613	21
83.99953	22
84.04458	3
84.05698	3
84.98399	15
85.00732	47
85.97327	8
86.01521	32
87.02294	6
89.95827	10
89.98804	12
90.0465	1
90.28772	1
90.49181	29
90.99563	30
91.02313	33
91.05435	6
91.49944	14
92.03091	61
92.0622	5
92.49797	8
93.07002	9
94.06533	3
94.07776	7
94.96825	4
95.0856	2
95.9763	15
96.00785	6
96.04446	1
96.05715	2
96.09347	5
96.98414	8
97.0159	8
97.05234	3
97.10137	5
98.0152	52
98.04746	2
98.10455	2
99.02303	38
102.96675	4
103.05426	3
103.99778	6
104.04959	3
106.94515	21
107.08563	7
107.97612	65
107.99953	19
108.05713	4
108.09333	4
108.48005	19
108.94212	16
108.98395	165
109.00745	49
109.48579	34
109.98269	133
110.01519	29
110.07282	2
110.48426	19
110.98112	30
111.0228	17
111.04389	2
111.08033	1
111.95222	3
112.06321	3
112.08836	2
112.12467	3
113.02339	2
114.963	5
115.05436	11
117.06978	7
118.07325	1
118.94488	15
118.99815	11
119.93441	3
119.976	12
119.99966	40
120.08081	3
120.09345	2
120.94205	3
120.98421	15
121.00745	26
121.076	2
121.10137	6
122.01523	92
122.03621	3
123.0229	3
123.11665	5
125.05995	3
125.96442	127
126.0312	1
126.04639	1
126.06766	1
126.46858	20
126.96311	135
127.05415	1
127.46462	4
127.96168	52
128.06198	12
129.06534	3
129.09093	5
130.94521	18
131.07275	4
131.48296	3
131.98473	94
131.99937	13
132.08081	2
132.94203	13
133.01367	5
133.48709	20
133.97345	73
134.01506	8
134.10919	4
134.96974	16
134.98111	27
135.02319	8
135.11671	1
135.47359	4
135.96831	5
136.05173	2
137.03868	3
137.13252	3
140.00285	93
140.47165	10
141.47009	9
141.93726	7
142.07759	2
142.94498	34
143.03628	18
143.44894	13
143.95279	580
143.97603	13
143.9996	33
144.05714	2
144.45462	77
144.95119	741
144.98401	13
145.00742	31
145.03973	2
145.06459	3
145.10115	5
145.45308	80
145.95003	389
146.01537	189
146.45146	33
146.94823	90
146.98128	9
147.02287	160
147.06548	1
147.94666	7
147.95728	12
148.0307	134
148.11194	1
149.02358	8
149.03429	32
149.47138	7
151.14812	1
152.96849	4
153.02133	3
154.07771	2
154.94511	6
155.0031	4
155.97604	20
156.98408	32
157.06483	1
157.97305	7
157.9917	27
158.10901	3
158.9666	2
158.98112	5
159.11667	4
159.9891	5
160.9333	47
161.13225	1
161.43735	38
161.93167	45
162.4363	60
162.93039	20
162.9695	2
163.14836	4
163.43481	43
163.92894	19
164.43257	10
164.98564	5
166.00946	27
166.07776	5
166.95322	14
168.9503	10
168.98413	11
169.01479	10
169.94968	18
170.9577	13
170.9997	14
171.11696	7
172.08856	2
174.97153	18
175.14804	1
176.96907	13
176.98477	4
178.92142	74
179.92029	151
180.42194	13
180.91853	144
180.96092	26
180.98399	33
181.10092	2
181.42044	17
181.91718	54
181.99161	228
182.91554	13
182.95784	11
182.98128	12
182.9998	191
183.11685	2
183.98904	64
184.0031	42
184.99631	67
185.09634	2
185.43875	6
185.99974	13
186.93857	11
187.14793	2
188.93591	4
189.06978	3
189.99075	24
191.00081	8
191.95294	19
192.0164	10
192.96018	17
192.98038	6
193.02428	6
193.95016	14
194.95721	11
195.11656	1
197.13232	3
201.00995	10
201.98625	3
202.92149	24
203.92993	6
203.98303	11
204.91887	22
204.99133	3
205.01654	4
205.92627	6
207.03212	33
207.10168	4
207.92389	7
211.00616	6
213.95335	25
215.95291	12
215.99762	7
216.96088	86
217.94957	15
217.96857	620
218.95818	56
218.97195	24
219.96574	410
220.95482	11
220.96884	14
221.96213	75
222.96558	2
227.92969	18
227.99315	12
229.92613	16
229.98961	8
231.92323	5
234.97165	4
237.89078	25
239.88791	26
240.77669	2
241.88432	14
251.92941	93
252.93799	97
253.92633	94
253.9296	17
254.9351	85
255.92396	27
256.9314	30
265.0202	3
265.98489	9
266.99936	3
267.96411	2
268.97214	23
271.93707	4
280.94406	15
281.05158	8
282.9411	13
286.89783	6
287.90588	754
288.90982	83
289.9035	999
290.90213	7
290.90613	116
291.9006	486
292.90411	49
293.89679	101
294.90112	7
295.89429	7
298.9433	12
299.94687	16
300.94076	22
302.93719	6
303.9411	15
305.93732	7
307.93445	5
321.86664	11
322.87479	136
323.86398	14
323.87961	14
324.87201	225
324.98672	3
325.86102	12
325.8768	23
326.86893	135
327.87338	15
328.86685	42
357.84464	432
358.84775	54
359.84024	836
360.84421	99
361.83774	638
362.84082	69
363.83518	255
364.83887	25
365.83218	59
366.83499	9
368.88159	4
369.88382	27
370.87833	9
372.87384	8
373.87872	15
374.87244	1
