Mass spectrum: 2,3-Dibromopropyl-2,4,6-tribromophenyl ether; GC-EI-FT; MS; Positive
Name: 2,3-Dibromopropyl-2,4,6-tribromophenyl ether
Name: 1,3,5-tribromo-2-(2,3-dibromopropyl)-4-[2,4,6-tribromo-3-(2,3-dibromopropyl)phenoxy]benzene
Class: Non-Natural Product; Brominated flame retardant
Formula: C18H12Br10O
Exact mass: 1033.27219
SMILES: C1=C(C(=C(C(=C1Br)OC2=C(C=C(C(=C2Br)CC(CBr)Br)Br)Br)Br)CC(CBr)Br)Br
InChI: InChI=1S/C18H12Br10O/c19-5-7(21)1-9-11(23)3-13(25)17(15(9)27)29-18-14(26)4-12(24)10(16(18)28)2-8(22)6-20/h3-4,7-8H,1-2,5-6H2
Instrument: Thermo Scientific Q Exactive GC Hybrid Quadrupol-Orbitrap
Instrument type: GC-EI-FT
Ms type: MS
Ion mode: POSITIVE
Base peak: 120.94693
m/z	relative intensity
51.02297	5
53.00226	5
53.03864	2
54.04642	2
55.05434	19
57.03359	2
60.0206	2
61.00739	22
62.01522	134
63.02293	46
65.03856	2
66.04639	1
67.05421	6
69.06992	4
73.00741	3
74.01509	96
75.02303	56
76.03084	18
77.03861	44
78.04642	12
78.9179	41
79.92566	64
80.06216	2
80.91577	42
81.92356	60
83.08547	4
87.04413	4
88.0309	2
89.03863	4
89.05981	2
90.01017	28
91.0179	12
91.05426	2
92.93345	62
94.93143	59
95.04919	1
96.0934	4
98.03645	4
99.11688	2
101.03879	4
101.05983	2
102.04649	59
103.05446	48
104.06205	12
104.93346	6
106.93137	7
108.94719	2
109.1012	2
110.07269	1
115.05393	3
115.05426	4
115.92586	26
116.06228	4
116.93353	32
117.07001	14
117.92374	28
118.07784	4
118.93156	34
118.94927	993
119.08554	4
119.95267	29
120.05702	2
120.94693	999
121.95041	32
122.03644	1
125.05981	1
125.09622	1
127.92582	10
129.04475	12
129.92372	8
130.04141	13
130.9129	5
130.93138	4
131.04929	109
132.05257	15
132.09335	4
132.91063	7
133.01352	2
134.10906	2
136.12486	1
137.13234	5
138.10408	1
139.9258	35
140.93327	676
141.92354	83
141.93671	47
142.93153	659
142.94896	9
143.9346	45
144.9473	6
145.06488	1
145.10106	9
147.08067	1
148.06538	4
151.92589	11
152.93339	100
153.06996	1
153.92374	18
153.94115	53
154.06218	2
154.07758	4
154.93155	97
154.94911	6
155.08536	1
155.9393	39
156.94696	7
157.93616	6
157.9548	5
159.93413	5
163.05432	2
165.0697	2
166.94943	5
168.9287	17
169.93648	45
170.84372	23
170.92639	18
171.93411	39
172.84213	44
174.8399	20
176.9854	1
179.9572	20
180.9648	9
181.95473	19
181.9724	8
182.94397	11
182.96249	21
183.11673	1
183.97028	9
184.11221	2
184.39677	2
184.94224	12
185.15367	1
187.14783	2
191.00081	7
191.08568	4
192.99754	2
193.01625	3
194.84396	45
195.95221	16
196.84219	89
197.94945	14
198.83977	43
198.87506	229
199.87898	6
200.87309	420
201.8762	12
202.87117	199
207.10232	2
208.95992	102
209.96463	15
209.9679	213
210.95766	115
211.14844	1
211.9652	210
212.96906	20
215.08554	2
217.10063	2
218.84412	12
219.85197	69
220.84204	27
220.85979	49
221.0846	1
221.8495	138
222.8549	17
222.85757	90
223.84732	66
224.85554	47
226.0424	2
231.85226	33
232.84145	5
233.84969	59
233.85257	12
234.8402	3
235.84793	27
235.86531	18
237.86281	8
246.1402	1
247.8465	60
248.85577	11
248.9884	1
249.84479	126
249.84796	19
250.85316	20
251.84267	62
251.86101	22
252.85153	8
253.85832	12
260.86673	8
261.86276	11
261.88077	6
262.86401	11
262.88898	3
263.8605	23
264.86166	6
264.88708	2
265.85806	9
274.87033	4
276.86826	7
281.05167	4
286.8706	18
287.87839	8
288.86813	43
288.88641	27
289.87576	17
290.8811	24
290.88376	48
291.87393	10
292.8818	24
298.76999	82
299.77286	4
300.76849	227
301.77164	11
302.76599	217
303.76932	9
304.76358	68
305.7681	3
326.76462	30
326.76938	5
327.77341	308
328.76279	98
329.77139	873
330.76016	116
331.76831	847
332.77255	72
333.767	265
334.77042	15
340.77374	6
342.77103	4
344.77734	1
367.80444	9
369.80231	27
371.80078	27
373.79752	8
450.71951	4
452.71612	2
529.63702	7
531.63464	8
533.63367	4
