Mass spectrum: Iso-E-super; GC-EI-FT; MS; Positive
Name: Iso-E-super
Name: 1-(2,3,8,8-tetramethyl-1,3,4,5,6,7-hexahydronaphthalen-2-yl)ethenone
Class: Non-Natural Product; Alicyclic compound
Formula: C16H26O
Exact mass: 234.19837
SMILES: CC1CC2=C(CC1(C)C(=O)C)C(CCC2)(C)C
InChI: InChI=1S/C16H26O/c1-11-9-13-7-6-8-15(3,4)14(13)10-16(11,5)12(2)17/h11H,6-10H2,1-5H3
Instrument: Thermo Scientific Q Exactive GC Hybrid Quadrupol-Orbitrap
Instrument type: GC-EI-FT
Ms type: MS
Ion mode: POSITIVE
Base peak: 191.1793
m/z	relative intensity
50.74165	1
51.02296	7
51.73002	1
51.87237	1
52.02631	1
52.03077	2
52.17148	1
52.50654	1
52.58781	1
52.64864	1
52.64898	1
52.91832	1
53.00225	1
53.03862	18
53.7282	1
54.03385	3
54.04196	1
54.04642	4
54.87773	1
54.97851	1
55.01788	24
55.05426	97
55.15654	1
56.0257	2
56.0495	2
56.05761	4
56.06207	17
57.03354	5
57.05733	2
57.06991	38
57.54694	1
58.04136	5
58.96445	1
59.03118	1
59.04917	20
60.02062	6
61.01049	1
61.02843	9
61.68909	1
61.87046	1
62.01516	4
62.33483	1
63.02295	13
63.29832	1
63.9614	1
64.03075	1
64.18006	1
64.92014	2
65.0386	51
65.61939	1
65.7288	1
65.78102	1
66.04644	12
67.04163	1
67.05424	159
67.24147	1
68.0257	4
68.04953	3
68.05761	11
68.06212	9
68.56425	1
68.99464	2
69.03352	8
69.0699	96
70.04134	4
70.06514	1
70.07329	5
70.07775	12
70.33884	1
71.04919	5
71.08556	15
71.62496	1
73.02844	16
73.04684	24
73.1658	1
73.91544	1
74.01512	14
74.03176	1
74.03625	4
75.01847	1
75.02298	12
75.02609	6
75.54614	1
75.79382	1
75.97476	1
76.01819	2
76.03079	23
77.00534	3
77.03857	219
77.48396	1
78.03384	2
78.04197	13
78.04643	124
79.00103	2
79.04169	3
79.04978	9
79.05421	324
80.02568	2
80.04949	11
80.05761	22
80.06206	29
80.99669	2
81.03356	8
81.05733	3
81.06097	1
81.06546	1
81.06989	220
82.04134	7
82.06515	8
82.07326	13
82.07773	23
82.36762	1
82.36826	1
83.03658	1
83.04916	19
83.06851	1
83.07293	3
83.08107	2
83.08553	87
83.64421	1
84.05254	1
84.05701	6
84.0808	1
84.08891	8
84.09339	7
85.02843	6
85.06483	11
85.1012	14
85.48668	1
86.01508	3
86.03625	13
87.02293	5
87.04411	21
87.20901	1
88.03075	1
88.05193	12
88.34132	1
88.81797	1
89.02048	4
89.0386	31
89.05972	1
89.54031	1
89.55457	1
90.04197	3
90.04646	8
90.11371	1
91.04169	2
91.05421	580
92.04948	3
92.05761	44
92.06209	48
92.09865	1
93.03351	2
93.05733	7
93.06097	2
93.0655	5
93.0699	353
93.45601	1
94.02869	1
94.04139	6
94.06518	6
94.07329	26
94.07775	17
95.04918	28
95.06043	2
95.06841	1
95.07304	1
95.07663	1
95.08553	320
96.00427	2
96.02821	1
96.0444	2
96.05701	6
96.08078	4
96.08892	24
96.09338	11
96.99384	1
97.0285	2
97.06486	13
97.08871	2
97.0968	1
97.10125	43
98.03629	29
98.07272	7
98.09656	1
98.10458	4
98.35197	1
99.03963	1
99.04412	16
99.08051	27
99.11683	1
99.51742	1
99.99304	1
100.04743	1
100.08382	2
100.10123	1
101.03866	2
101.05977	7
101.21485	2
102.03389	1
102.04646	25
102.0676	3
102.53783	1
103.0417	2
103.04979	3
103.05427	96
104.02569	2
104.04949	4
104.05766	9
104.06208	121
104.84132	1
105.03355	9
105.04478	32
105.05728	1
105.06545	11
105.06989	390
105.88522	1
106.04135	9
106.06519	8
106.07329	42
106.07775	31
107.04919	19
107.0604	1
107.07302	5
107.0766	2
107.08104	3
107.08553	306
108.05245	1
108.05703	6
108.08078	4
108.08892	26
108.09338	16
109.02847	2
109.06487	24
109.10118	489
109.36961	1
110.07268	8
110.09653	1
110.10459	45
110.10909	4
110.75894	1
111.04411	5
111.08048	21
111.10793	2
111.11686	13
111.89362	1
112.08829	4
112.99683	1
113.0386	4
113.05973	5
113.09608	3
114.04649	5
114.06759	21
114.26019	1
115.03902	8
115.05426	179
115.07541	4
115.99979	1
116.04956	3
116.05763	17
116.06211	31
117.05731	8
117.06989	218
118.04135	4
118.05256	1
118.06062	1
118.06512	7
118.07326	19
118.07774	54
118.38554	1
118.99797	1
119.04924	4
119.06043	6
119.06153	1
119.07305	3
119.08553	877
119.109	1
119.1101	1
119.21957	1
120.05698	5
120.06824	1
120.08079	8
120.08893	100
120.09339	38
121.02848	2
121.06485	23
121.07653	1
121.08425	1
121.08865	3
121.09228	4
121.10116	599
121.4518	1
121.81559	1
122.03628	3
122.07267	9
122.09644	4
122.10457	60
122.10786	1
122.10902	9
122.6088	1
123.04405	7
123.08047	46
123.10788	3
123.11685	87
124.08384	4
124.08833	5
124.12026	10
124.12471	3
125.05973	3
125.09621	5
125.13252	3
126.03128	2
126.04646	7
126.06757	14
127.03899	3
127.04975	1
127.05429	10
127.07541	5
128.04947	3
128.06207	118
128.08321	5
129.04474	2
129.05733	4
129.06543	12
129.06989	143
129.09102	3
130.06516	13
130.0733	15
130.07776	44
131.04915	9
131.06038	5
131.06856	2
131.073	4
131.07664	1
131.08113	7
131.08557	132
132.05699	3
132.06831	2
132.08087	7
132.08893	15
132.0934	13
132.24258	1
133.01361	9
133.05002	1
133.05222	1
133.06487	10
133.07605	4
133.08426	1
133.08867	2
133.1012	163
134.03638	5
134.06007	3
134.07263	5
134.09647	2
134.10457	18
134.10902	26
135.04404	4
135.06242	5
135.08047	29
135.10426	1
135.11678	397
136.05196	3
136.08385	2
136.08833	9
136.11212	2
136.12024	44
136.12465	6
136.28249	1
137.04178	3
137.05989	2
137.09154	1
137.09615	46
137.1236	2
137.13252	8
138.0464	1
138.09947	3
138.14037	2
139.03897	1
139.05423	13
139.07542	4
139.24937	1
140.04689	1
140.04947	5
140.05763	2
140.08324	2
141.05739	2
141.0699	58
141.09109	1
142.06256	1
142.06512	3
142.07333	8
142.07774	30
143.07034	7
143.07301	7
143.0811	3
143.08556	45
144.05701	4
144.06824	2
144.0808	9
144.08893	7
144.09338	14
145.06482	15
145.07608	3
145.08865	2
145.09673	3
145.10118	85
145.96846	4
146.06818	2
146.07262	28
146.09642	4
146.10458	9
146.10902	12
146.93848	1
147.06558	11
147.07602	4
147.08044	26
147.09177	2
147.11681	206
147.96547	2
148.05188	1
148.06519	3
148.08383	2
148.0883	3
148.11206	1
148.12019	23
148.12459	8
148.93103	1
149.02327	2
149.04482	6
149.05972	3
149.09613	42
149.12347	2
149.13251	80
150.04642	4
150.06761	1
150.09949	4
150.10397	3
150.13585	11
150.14037	3
151.02417	4
151.03903	2
151.05421	5
151.07538	1
151.11179	10
152.02367	1
152.06206	25
152.08322	3
152.11949	2
153.0546	2
153.05742	1
153.06537	4
153.06989	23
153.09097	1
154.06241	6
154.06517	5
154.07326	2
154.07771	14
155.06036	26
155.07021	3
155.07294	3
155.08125	1
155.08549	21
156.06371	3
156.08076	9
156.08885	2
156.09335	12
157.06479	4
157.07603	3
157.08597	1
157.08868	6
157.10118	23
158.07269	6
158.08392	1
158.09637	4
158.10452	3
158.10912	6
159.08046	7
159.09164	1
159.10432	2
159.11682	73
160.08826	4
160.11206	2
160.12019	10
160.1246	9
160.95401	1
161.04707	2
161.05968	4
161.0961	10
161.12364	1
161.13246	73
162.0994	2
162.10399	3
162.13585	8
162.14026	12
162.96959	2
163.05418	6
163.07532	1
163.11172	33
163.12932	1
163.14371	1
163.14806	24
164.05774	1
164.06201	3
164.11513	4
164.14351	1
164.15141	1
164.65608	1
164.98544	1
165.06989	32
165.12737	3
166.06512	3
166.07326	3
166.07768	6
167.07295	3
167.08554	15
168.08075	3
168.09338	3
169.07596	2
169.10118	9
170.0726	5
170.09641	3
170.10892	5
170.36418	1
170.55112	1
171.011	2
171.07614	1
171.0806	1
171.11684	5
172.08826	3
172.12029	1
172.12468	3
173.09607	2
173.13246	78
174.10387	3
174.1358	10
174.14029	3
175.03922	2
175.07535	2
175.11169	6
175.14812	89
176.06204	3
176.11958	3
176.15144	13
176.15601	4
176.36821	1
176.98531	2
177.12735	157
177.16377	27
178.06514	2
178.07767	14
178.13074	19
178.1671	5
178.17162	1
178.96474	2
179.0011	1
179.06035	3
179.08069	2
179.08549	8
179.10672	1
180.08075	2
180.08891	2
180.09332	4
181.08617	1
181.08846	3
181.10117	4
182.08383	2
182.09639	3
182.10901	3
183.03578	3
183.09172	2
183.10428	2
183.11679	4
184.08827	4
184.11198	3
184.1246	2
185.09164	1
185.09604	7
185.11989	2
185.13249	3
186.11507	1
186.14035	2
187.11156	1
187.1481	6
188.15149	2
188.15587	16
188.59082	1
189.06989	6
189.12726	2
189.15948	2
189.16373	50
190.06505	2
190.07756	2
190.13509	2
190.16733	7
190.17155	33
190.48772	1
191.00099	9
191.07065	1
191.07298	1
191.08548	5
191.13029	2
191.14299	35
191.17928	999
191.87502	1
192.00055	2
192.00426	1
192.07861	2
192.08081	2
192.08887	1
192.09332	3
192.14636	7
192.15082	7
192.18277	160
192.98042	6
192.98256	1
193.01665	1
193.04993	12
193.08864	2
193.10127	3
193.15422	1
193.18613	8
193.9799	2
194.09634	3
194.10471	1
194.10907	3
195.09166	1
195.09987	1
195.11676	3
196.12469	3
197.05951	1
198.06737	1
198.10362	1
199.14815	2
201.04633	1
201.09087	1
201.16373	27
202.07762	6
202.16716	6
203.08078	2
203.08554	4
205.01674	1
205.076	1
205.10114	2
206.09634	2
207.10194	7
207.11681	1
208.07301	5
208.10155	1
208.11224	1
208.12457	2
209.08098	2
211.06044	3
212.08308	5
212.14346	2
213.09085	5
214.85707	1
215.08557	3
216.0807	1
217.08865	2
218.08405	1
218.09641	1
218.10889	1
218.27162	1
219.11685	1
219.17435	46
220.17772	10
221.08432	6
221.13252	2
222.08778	1
225.04291	9
225.11261	1
226.07764	2
228.09341	1
230.09645	1
231.09175	1
231.16612	1
234.14026	1
234.19797	9
235.20143	1
239.08566	2
241.2999	1
247.19186	1
248.98868	2
251.8134	1
252.09377	1
253.01695	1
253.10115	1
258.12527	1
259.07214	1
261.12646	1
261.1637	1
265.02008	5
266.99936	4
267.03586	1
267.06909	1
267.99887	2
277.07779	4
281.05121	14
282.05069	4
282.05472	2
283.04807	1
285.00992	1
287.82083	1
295.10315	1
299.0614	2
303.70837	1
314.49112	1
314.83771	1
327.03561	1
341.01797	2
370.23645	1
370.44803	1
392.20541	1
