Mass spectrum: PBDE-77; GC-EI-FT; MS; Positive; CE: 35
Name: PBDE-77
Name: 3,3,4,4-Tetrabromodiphenyl ether
Class: Non-Natural Product; Brominated Flame Retardant
Formula: C12H6Br4O
Exact mass: 481.7152
SMILES: C1=CC(=C(C=C1OC2=CC(=C(C=C2)Br)Br)Br)Br
InChI: InChI=1S/C12H6Br4O/c13-9-3-1-7(5-11(9)15)17-8-2-4-10(14)12(16)6-8/h1-6H
Instrument: Trace 1310 GC, Thermo Scientific; Q Exactive Orbitrap, Thermo Scientific
Instrument type: GC-EI-FT
Ms type: MS
Ion mode: POSITIVE
Collision energy: 35 eV
Retention time: 25.277
Base peak: 485.7112
m/z	relative intensity
101.03878	1
103.05444	2
104.98222	1
105.07004	13
107.0493	4
108.05096	3
108.08083	2
108.09349	4
108.48209	48
108.98411	9
109.00738	11
109.10118	1
109.48134	39
109.98287	5
110.01511	23
110.03644	2
111.02305	38
112.03085	7
113.03876	15
114.06775	1
115.03896	2
115.9258	8
116.05753	2
116.06226	2
116.93339	19
117.06999	13
117.92371	6
118.07343	5
118.07784	10
118.93154	19
118.99809	10
119.08552	10
120.09338	2
121.06483	2
121.10127	11
122.0965	2
122.98357	13
123.04395	2
123.9826	18
125.0234	3
125.05979	2
126.03106	2
126.06754	3
127.03901	2
127.92581	21
128.04939	2
128.06223	9
128.08322	2
129.06999	4
129.92372	15
130.07344	3
130.07765	5
130.91287	4
130.93137	4
131.04929	3
131.99962	3
132.08891	3
133.01347	7
133.06499	2
134.01323	3
134.03618	1
134.06027	2
134.10906	4
134.99271	1
135.04408	4
135.06253	2
137.03848	226
138.0466	295
139.04883	4
139.05444	134
139.07562	3
140.05786	16
140.93364	31
141.06984	9
141.94124	36
142.0735	2
142.07787	10
142.93156	22
142.94894	33
143.93924	37
144.05707	1
144.09361	3
144.94734	28
146.07254	2
147.08063	3
147.11699	5
147.9098	1
147.93828	3
148.4363	10
149.13237	3
151.02437	2
151.05424	5
151.92584	2
152.02388	2
152.0621	6
152.08325	2
152.93335	68
153.06995	2
153.92319	5
153.94116	129
154.9315	86
154.94443	9
155.06042	3
155.08528	5
155.9393	161
156.06372	3
156.08102	1
156.94319	9
158.10886	2
159.08052	3
159.11664	6
160.12479	2
160.95384	3
161.13264	2
161.93872	105
162.44049	10
162.93756	218
162.96996	4
163.14819	3
163.43932	33
163.93672	106
163.96939	2
164.43808	17
164.94911	3
164.96672	2
164.98554	4
165.0697	3
166.04141	59
166.92799	2
166.9494	2
167.04901	31
168.05704	15
168.08919	2
168.94684	8
169.06476	3
169.07597	1
169.93643	51
170.07265	5
170.09665	2
170.10896	1
170.84424	6
171.0805	2
171.93407	44
172.00182	4
172.842	9
172.94153	6
173.94984	7
174.14024	4
174.83978	6
175.14786	5
175.97749	3
176.08278	2
176.15553	2
177.16368	2
177.95653	3
178.07779	5
179.03375	3
179.08574	4
179.96423	1
181.10141	2
182.9552	6
184.0881	4
184.95291	3
185.13277	2
187.14839	3
189.06966	3
189.16386	6
190.9491	8
191.0007	18
191.08569	2
191.97272	4
192.0934	3
192.88965	1
192.94717	11
192.99832	5
193.0501	2
193.10118	2
194.84407	10
194.97679	1
196.84212	17
196.97557	3
198.10429	2
198.8396	8
199.03085	1
199.1479	4
200.10437	2
201.07025	2
202.07793	3
202.89198	2
203.08522	3
204.1143	2
205.01643	5
207.11706	3
209.08069	2
209.13261	3
211.06033	1
213.09088	4
214.0943	2
214.94925	4
215.08553	1
215.9568	12
216.96504	325
217.19507	2
217.95493	13
217.96828	27
218.96236	301
219.11717	1
219.96553	32
220.85954	78
222.85742	143
222.93689	7
223.02803	1
223.86067	7
224.85539	64
226.04202	2
227.02249	2
229.00153	2
232.85941	10
234.85739	12
236.85597	6
236.95186	6
239.17949	1
243.95178	9
244.12468	1
244.96002	149
245.94962	8
245.9682	30
246.95781	122
247.96689	31
248.85461	5
248.96948	5
249.86273	13
250.85231	10
251.86072	26
252.85042	4
253.85906	18
254.96315	2
255.21132	1
260.86603	36
262.86386	76
264.86176	44
265.02011	4
267.01691	2
267.06842	2
272.87329	8
272.96524	5
274.87152	4
279.07193	4
294.87521	22
295.10364	6
295.88263	15
296.87329	44
296.89111	15
297.88104	28
298.87116	20
298.88931	31
299.06247	2
299.8793	15
300.06134	1
300.88776	11
310.97147	5
312.9498	2
322.87015	8
323.0072	2
323.87826	111
324.86856	13
324.88129	20
325.87549	217
325.89432	1
326.86584	10
326.87851	27
327.87363	126
327.88971	5
328.87824	5
329.89017	2
341.08792	2
342.01727	5
344.97668	3
358.06662	2
363.30527	1
374.80216	30
375.80508	4
376.80023	115
377.80316	12
378.79642	111
379.80136	5
380.7944	32
400.9855	2
401.7879	3
401.98465	2
403.78577	10
403.80319	40
404.79358	7
405.80301	89
406.35852	1
406.80072	4
406.80512	7
407.80005	83
408.80316	10
409.38016	2
409.79831	31
415.10751	2
417.03424	4
475.00168	5
481.71457	166
482.71759	21
483.7124	657
484.71597	90
485.71118	999
486.71521	120
487.70798	658
488.7124	85
489.70526	153
490.70984	14
