Mass spectrum: PCB-47; GC-EI-FT; MS; Positive
Name: PCB-47
Name: 2,2',4,4'-Tetrachlorobiphenyl
Class: Non-Natural Product; PCB
Formula: C12H6Cl4
Exact mass: 289.92236
SMILES: C1=CC(=C(C=C1Cl)Cl)C2=C(C=C(C=C2)Cl)Cl
InChI: InChI=1S/C12H6Cl4/c13-7-1-3-9(11(15)5-7)10-4-2-8(14)6-12(10)16/h1-6H
Instrument: Trace 1310 GC, Thermo Scientific; Q Exactive Orbitrap, Thermo Scientific
Instrument type: GC-EI-FT
Ms type: MS
Ion mode: POSITIVE
Retention time: 13.40582
Base peak: 219.9841
m/z	relative intensity
50.8988	2
51.02298	3
53.03863	2
54.0465	2
54.99464	11
55.01785	2
55.04172	1
55.05433	14
55.49388	5
56.06208	28
57.03359	2
57.0699	23
61.00726	11
61.51123	4
62.0152	13
63.02294	6
63.96144	1
65.03855	1
67.05421	5
68.06212	1
72.47879	6
72.98396	22
73.00736	13
73.04691	1
73.47735	5
73.51133	7
74.0152	86
74.51687	5
75.023	111
75.52455	5
76.03081	7
77.00536	3
77.03857	6
78.99557	5
79.05421	2
80.00349	4
81.07002	4
83.5243	1
83.9762	14
83.99959	9
84.98399	17
85.00736	26
85.97328	4
86.01523	39
86.98107	5
87.02291	30
88.0308	3
91.49968	5
92.00345	124
92.0622	1
92.50514	18
93.00213	46
93.50377	6
95.08559	2
95.97605	3
96.08087	3
96.98412	28
97.00743	11
97.98263	7
98.01518	100
98.98103	6
99.02305	101
100.02634	14
101.00893	6
106.51049	21
106.94511	5
107.50884	7
107.97616	14
108.09332	4
108.94212	3
108.98397	44
109.00742	15
109.48792	7
109.98271	16
109.99199	307
110.0152	30
110.49361	40
110.99023	204
111.02286	31
111.49211	23
111.98878	31
113.03853	8
113.96467	2
115.05435	1
117.05725	2
117.98951	2
118.99154	4
119.97601	4
119.99965	12
120.98424	10
121.00735	14
121.9498	2
122.01523	75
122.9808	4
122.99947	4
123.02291	136
123.49113	10
123.99274	1
124.03093	54
124.48962	7
125.03859	19
126.04641	3
126.97235	113
127.4764	43
127.97105	122
128.47482	45
128.96941	41
129.07007	2
129.47321	13
129.96799	3
131.97626	10
132.92271	1
132.94203	3
132.98401	26
133.01363	4
133.97302	3
133.99176	18
134.01506	2
134.98111	7
134.99966	13
135.0228	12
135.11671	2
135.98872	4
136.00746	6
136.02661	1
136.12453	1
136.99689	4
137.03864	13
138.04633	4
139.05415	1
141.97403	2
143.97598	2
144.96059	63
144.98402	11
145.46251	6
145.95908	87
146.01498	24
146.46097	10
146.95783	34
146.99953	25
147.0229	45
147.45918	4
147.95622	9
148.00752	8
148.03072	68
148.99675	8
149.03873	344
150.04617	966
150.06738	1
151.04996	122
152.06233	6
156.98406	6
157.99176	13
158.96661	2
158.99948	44
159.9891	5
160.00752	34
160.99678	14
162.00427	10
163.0058	13
163.05389	1
163.14828	1
165.0027	3
167.04932	13
168.0531	2
168.96056	6
168.98827	1
169.9687	47
170.9997	5
171.96552	31
173.01494	5
173.96233	5
176.98569	1
177.04485	19
179.06016	1
180.96101	4
181.96857	3
181.99162	4
182.95804	1
182.97664	2
182.99991	32
184.00716	321
184.99637	9
185.01527	216
186.00455	99
186.0188	34
187.01199	72
188.01592	12
191.00088	7
193.05019	1
193.96834	36
194.97183	4
195.96552	23
197.96234	4
203.02568	28
203.92989	8
204.02918	3
205.02292	8
205.92624	7
207.03217	15
207.10168	1
209.0289	2
213.02167	84
214.02478	10
215.0188	30
217.96875	14
218.97632	17
219.98415	999
220.97411	12
220.98746	130
221.98079	625
221.98167	307
222.98438	78
223.97862	103
224.98138	11
231.2112	2
242.28357	2
246.98177	5
248.98852	4
253.94484	21
254.95351	204
255.94284	19
255.95544	23
256.95007	196
257.93979	6
257.95285	23
258.94675	62
259.94992	8
260.94397	7
266.99924	1
281.05145	4
289.92212	648
290.92496	79
291.9194	834
291.93811	3
292.92188	106
293.91586	397
294.91888	49
295.91354	88
296.91598	11
297.9101	7
