Mass spectrum: Traseolide; GC-EI-FT; MS; Positive
Name: Traseolide
Name: 5-Acetyl-1,1,2,6-tetrametyl-3-isopropyl-dihydroindene
Class: Non-Natural Product; Methyl ketone
Formula: C18H26O
Exact mass: 258.19837
SMILES: CC1C(C2=C(C1(C)C)C=C(C(=C2)C(=O)C)C)C(C)C
InChI: InChI=1S/C18H26O/c1-10(2)17-12(4)18(6,7)16-8-11(3)14(13(5)19)9-15(16)17/h8-10,12,17H,1-7H3
Instrument: Thermo Scientific Q Exactive GC Hybrid Quadrupol-Orbitrap
Instrument type: GC-EI-FT
Ms type: MS
Ion mode: POSITIVE
Base peak: 215.1429
m/z	relative intensity
51.02296	9
51.05402	1
52.01821	1
52.02634	1
52.03078	2
53.00222	1
53.03828	1
53.03862	9
53.64036	1
53.88903	1
53.90986	1
54.03386	1
54.04642	3
55.01752	1
55.01788	19
55.05426	34
56.02567	2
56.04948	1
56.0576	1
56.06174	1
56.06207	7
56.90158	1
57.0335	2
57.06991	15
57.12769	1
57.52687	2
58.03081	1
58.04135	1
58.07324	1
59.04917	4
60.02061	6
60.81217	1
61.0073	2
61.02843	10
62.01515	4
62.66398	1
63.02295	10
63.75074	1
63.96137	1
64.02624	1
64.03079	3
64.8166	1
64.96919	1
65.0386	29
65.11116	1
66.04196	1
66.04644	6
66.07393	1
66.09219	1
67.04165	2
67.05425	52
68.02571	2
68.04948	1
68.05763	3
68.0621	6
68.11453	1
68.51053	1
68.79288	1
68.99467	1
69.03351	5
69.06991	29
69.09383	1
70.04137	4
70.07328	2
70.07776	6
71.0386	1
71.04917	2
71.08114	0
71.08557	8
71.1953	1
71.53616	1
72.057	1
72.99045	1
73.00728	1
73.02845	14
73.04636	1
73.04684	8
73.1254	1
74.01511	13
74.03624	4
74.04643	1
74.0501	1
75.02296	9
75.02608	2
75.43784	1
75.55724	1
76.03079	15
77.00541	1
77.03413	1
77.03857	104
78.03386	1
78.04198	5
78.04642	95
79.00101	1
79.04166	4
79.04977	5
79.05424	93
80.02567	1
80.04948	6
80.05759	6
80.06207	12
80.51109	1
80.99669	1
81.02532	1
81.03352	5
81.05286	1
81.05731	2
81.06544	2
81.06991	58
81.77702	1
82.03689	1
82.04134	4
82.06516	5
82.07328	4
82.07773	11
82.53468	1
83.02596	1
83.03855	1
83.04916	8
83.07292	1
83.08554	22
83.53627	1
84.04646	1
84.05701	3
84.08079	1
84.08888	1
84.09337	3
85.0073	1
85.02844	9
85.03604	1
85.0648	2
85.1012	5
86.01511	2
86.03624	11
86.10448	1
86.17578	1
86.19234	1
87.02298	4
87.0441	16
88.02631	1
88.03078	1
88.04742	2
88.05191	10
89.02048	3
89.0386	24
90.04202	2
90.04644	6
91.03603	1
91.04169	1
91.05422	255
91.07018	1
92.04949	1
92.05761	20
92.06209	30
93.03354	2
93.05734	2
93.06097	1
93.06545	2
93.06995	35
94.04137	7
94.06521	3
94.07325	1
94.07776	8
94.8283	1
95.04917	11
95.07295	1
95.08557	24
96.03391	1
96.0444	3
96.05257	1
96.05699	3
96.08889	1
96.09338	6
96.53548	1
97.02847	4
97.06485	4
97.10123	11
97.75657	1
98.01513	2
98.03629	32
98.07267	5
98.10459	1
98.10905	1
99.03962	2
99.04411	14
99.08042	1
99.9931	1
100.0474	1
100.05189	1
101.03862	2
101.05977	6
101.97517	1
102.04645	21
102.0676	4
102.96664	1
103.04168	1
103.04976	2
103.05426	64
104.02572	2
104.04948	4
104.05764	6
104.06207	111
105.03355	7
105.04478	17
105.05739	2
105.06546	10
105.06993	73
106.04136	8
106.04813	1
106.06518	6
106.07327	6
106.07776	10
107.03657	1
107.04918	13
107.06036	1
107.07301	3
107.08556	17
108.01241	1
108.04439	1
108.057	4
108.08079	2
108.08891	2
108.09337	5
109.02855	1
109.06485	8
109.10123	13
110.06004	1
110.07262	2
110.10456	1
110.10904	2
111.023	1
111.0441	5
111.08045	2
111.11689	4
112.05188	1
112.08834	1
113.02332	1
113.03861	4
113.05972	3
114.04198	1
114.04656	2
114.06759	20
114.2591	1
114.26034	1
115.03902	8
115.05423	200
115.07094	2
115.07539	5
116.04955	3
116.05644	1
116.05761	21
116.06209	30
116.72422	1
116.75774	1
117.05735	6
117.06102	1
117.06538	2
117.06988	137
117.76703	1
118.04134	3
118.05254	2
118.06519	3
118.07325	12
118.07773	44
118.10293	1
118.9915	1
118.99803	1
119.04924	3
119.06038	2
119.073	2
119.08113	3
119.08559	38
120.05701	4
120.08084	5
120.08891	4
120.0934	7
121.02843	1
121.0648	7
121.08857	1
121.10121	19
121.47742	1
121.99274	1
122.03628	2
122.05999	1
122.06822	1
122.07262	3
122.09644	2
122.10455	2
122.10902	3
123.04408	5
123.08044	4
123.11684	7
124.03929	1
124.05196	2
124.08825	1
124.11214	1
124.12029	1
124.12469	1
124.13921	1
125.02335	2
125.0386	2
125.05975	3
125.13245	1
126.03114	2
126.04647	10
126.06757	16
127.03899	3
127.04978	1
127.05424	16
127.07092	1
127.07526	1
127.11166	1
128.04948	2
128.05772	3
128.06201	243
128.08318	4
129.04475	2
129.05736	3
129.06544	27
129.06984	198
129.09099	2
130.04161	1
130.06522	9
130.06885	1
130.07329	22
130.07776	42
130.99149	1
131.04919	10
131.06851	1
131.07292	3
131.08112	4
131.08551	353
131.86276	1
132.05257	1
132.05701	2
132.06822	1
132.08087	3
132.08893	36
132.09338	20
133.0136	3
133.05209	1
133.06483	7
133.07607	1
133.08859	1
133.09225	1
133.09669	2
133.10121	17
134.03629	8
134.05994	1
134.07268	3
134.09644	2
134.10457	2
134.10909	3
135.03961	1
135.0441	7
135.06245	1
135.08041	6
135.11684	8
136.05191	3
136.08377	1
136.08826	1
136.12465	2
136.84218	1
137.00862	1
137.03859	1
137.04167	1
137.05981	1
137.09601	2
137.13252	4
138.04634	1
138.13586	1
139.03896	1
139.05423	16
139.07536	4
139.14813	1
139.81506	1
140.04948	2
140.05748	2
140.06204	3
140.08315	1
141.05466	1
141.05734	1
141.06981	280
141.09108	1
141.45572	1
142.0625	2
142.0652	4
142.0733	32
142.07767	258
142.24985	1
143.06038	1
143.06874	1
143.07031	8
143.07294	6
143.07669	3
143.0811	30
143.08553	136
144.05704	4
144.06819	1
144.07634	1
144.08081	7
144.08437	1
144.08893	18
144.09184	1
144.09337	17
145.06479	17
145.0761	1
145.08859	2
145.09227	1
145.09669	2
145.10118	71
146.05998	1
146.06816	2
146.07263	33
146.09639	1
146.10452	8
146.10901	2
146.93842	1
147.04404	2
147.06557	4
147.06779	1
147.07593	3
147.08044	24
147.11687	9
147.61552	1
147.96547	1
148.05185	2
148.08372	2
148.08827	1
148.12021	1
148.12468	1
149.02336	1
149.04486	2
149.0598	2
149.06244	1
149.09618	1
149.13251	5
149.23741	1
149.43143	1
150.0464	3
150.0676	2
150.13568	1
150.14041	1
151.02417	2
151.05434	5
151.07539	3
151.14812	1
152.04674	1
152.04951	1
152.06207	40
152.07057	1
152.08316	2
153.0547	1
153.06546	4
153.06987	70
153.08644	1
153.09102	1
154.06248	7
154.06512	4
154.07327	11
154.07768	31
155.04912	2
155.06035	42
155.0658	1
155.07022	3
155.07281	1
155.08118	4
155.08549	80
155.47653	1
156.05693	2
156.06375	4
156.07634	1
156.08073	5
156.08897	12
156.09334	118
157.0648	12
157.07608	2
157.08594	1
157.08865	3
157.09683	13
157.10114	173
157.13728	1
158.06808	1
158.07262	6
158.08369	1
158.09642	2
158.10016	1
158.10452	21
158.10899	15
158.88901	1
158.96655	1
159.04404	1
159.06787	1
159.08046	9
159.10439	1
159.10789	2
159.11243	2
159.11682	61
160.05182	1
160.08383	1
160.08826	2
160.11197	1
160.12015	9
160.12459	2
160.9539	1
161.04709	1
161.05972	4
161.09602	4
161.13254	4
162.06744	1
162.10379	1
162.13597	1
162.14032	2
163.05426	2
163.07527	3
163.11159	1
163.14804	1
164.06201	4
164.08318	2
164.14343	1
165.06989	37
166.06516	3
166.07323	5
166.07768	8
166.09888	1
167.07025	1
167.07292	2
167.0811	1
167.08549	25
168.05698	1
168.07637	1
168.08075	2
168.08894	4
168.09334	15
168.9882	1
169.06479	10
169.07611	4
169.08871	1
169.09674	2
169.10115	32
169.75005	1
170.0681	2
170.07265	13
170.09178	1
170.09637	2
170.1046	3
170.10896	18
171.01088	1
171.07596	1
171.0804	23
171.09157	1
171.11671	244
172.07561	1
172.08379	2
172.08823	2
172.11211	1
172.12016	39
172.12462	35
172.3308	1
173.0961	31
173.13237	429
173.97578	1
174.06746	1
174.09943	5
174.1358	65
175.07535	2
175.13921	6
175.14813	3
176.06195	3
176.11951	1
177.06989	1
177.09097	1
178.06505	1
178.07767	8
178.38206	1
178.96457	1
179.03384	2
179.06033	2
179.07294	1
179.08092	2
179.08548	9
179.63232	1
180.04169	1
180.07802	1
180.08054	1
180.08888	1
180.09328	3
180.7928	1
181.06474	2
181.08572	2
181.08844	1
181.1011	7
181.22009	1
181.758	1
182.07257	2
182.08365	1
182.09642	1
182.1046	1
182.10901	6
183.03581	1
183.08044	18
183.10426	2
183.11227	1
183.11679	17
184.08371	2
184.08824	21
184.112	2
184.12007	2
184.12463	10
185.09154	3
185.09605	94
185.10738	1
185.12804	1
185.13248	18
186.06126	1
186.0994	14
186.10403	4
186.13576	3
186.14029	2
187.10294	1
187.11172	24
187.14813	5
188.11508	4
188.11945	3
188.15588	1
189.06979	5
189.12758	1
189.16365	1
190.06496	1
190.07758	1
190.09879	2
190.17166	1
191.00111	3
191.07285	2
191.08553	4
191.1066	2
191.14293	2
192.08075	1
192.09343	1
192.11452	1
192.98027	1
192.99786	1
193.04976	3
193.08826	1
193.10117	3
194.09628	1
194.10898	1
195.08041	2
195.11687	2
196.112	1
196.12465	5
197.09605	7
197.1324	6
198.10391	3
198.12782	1
198.1402	5
199.03058	1
199.11171	26
199.14375	1
199.14807	8
200.06181	1
200.08325	1
200.11522	3
200.11954	8
200.15163	1
200.15584	3
201.04628	1
201.06975	1
201.09087	1
201.12283	1
201.1273	17
201.16374	3
202.07771	3
202.13062	2
202.17151	1
202.33017	1
203.07288	1
203.08537	2
203.17952	1
204.11444	2
205.10114	1
206.10899	1
207.10202	4
208.07304	5
208.12468	1
209.08075	2
209.09608	1
209.13258	1
209.22163	1
210.14029	2
210.99086	1
211.11172	2
212.08313	7
212.11964	1
213.05765	1
213.08643	1
213.091	7
213.12735	11
213.16374	39
214.13049	2
214.13519	30
214.16708	6
214.31714	1
215.08569	2
215.10667	2
215.14294	999
215.17955	2
215.20082	2
215.52554	1
215.97365	1
216.14638	169
216.55365	1
217.10126	1
217.14722	1
217.14984	12
217.19502	1
218.1532	1
219.11687	1
220.1199	1
220.12495	1
221.08456	1
223.08888	1
225.04298	4
225.12735	1
225.16364	2
225.5786	1
226.09877	1
227.10666	1
227.12802	1
227.14313	6
227.17947	1
228.09331	1
228.14636	1
228.15086	2
228.18723	2
229.19516	13
230.13017	1
230.19833	2
231.21078	2
233.13275	1
241.15884	4
242.11737	1
242.16205	1
243.17441	106
244.17778	21
245.18114	2
245.22668	1
246.48877	1
248.98854	1
253.01671	1
253.10149	1
255.12296	1
255.21072	1
256.18234	3
257.19012	1
258.12518	3
258.19797	58
259.20132	13
265.0199	1
266.9993	2
270.23431	1
272.24991	3
274.52948	1
277.07776	2
278.08139	1
281.05127	6
282.05115	1
283.04785	1
285.4379	1
290.79028	1
292.65771	1
299.06125	1
301.37314	1
323.62357	1
327.03561	1
327.4216	1
348.22409	1
360.10648	1
376.05106	1
390.55667	1
