Mass spectrum: TPP; GC-EI-FT; MS; Positive
Name: TPP
Name: Triphenyl phosphate
Class: Non-Natural Product; Organophosphate flame retardant
Formula: C18H15O4P
Exact mass: 326.070795
SMILES: C1=CC=C(C=C1)OP(=O)(OC2=CC=CC=C2)OC3=CC=CC=C3
InChI: InChI=1S/C18H15O4P/c19-23(20-16-10-4-1-5-11-16,21-17-12-6-2-7-13-17)22-18-14-8-3-9-15-18/h1-15H
Instrument: Thermo Scientific Q Exactive GC Hybrid Quadrupol-Orbitrap
Instrument type: GC-EI-FT
Ms type: MS
Ion mode: POSITIVE
Base peak: 325.06241
m/z	relative intensity
50.01514	7
51.02296	54
52.02632	2
53.03861	2
53.75526	3
58.25784	2
62.01516	2
63.02295	14
64.03079	5
65.03861	95
66.04193	5
66.04645	18
74.01513	10
75.02297	7
76.03079	9
77.0386	272
78.04198	17
81.03352	8
81.26408	9
81.26563	2
81.51588	3
83.00456	2
84.01238	4
89.0382	3
89.03867	3
92.02569	10
93.03356	12
94.04137	127
95.04474	8
95.04919	11
98.99962	3
100.00729	16
102.04652	2
105.04479	10
109.02852	10
112.00752	3
113.03866	2
115.05438	62
116.05769	6
121.02849	1
126.04653	3
127.05433	3
128.00237	2
128.06213	11
129.06995	4
131.04927	3
133.0202	2
138.99443	70
139.05428	22
139.99794	4
140.00221	31
140.05759	3
140.06213	4
141.06992	112
142.07332	13
142.07777	32
143.08119	4
144.05705	1
150.04646	6
151.05428	20
152.05795	2
152.06207	71
153.06551	9
153.06992	10
155.04907	4
155.06039	2
155.99712	17
157.00497	3
157.06484	7
159.03584	3
165.0699	2
168.05698	206
169.06059	23
169.06473	337
170.06827	42
170.07263	159
171.07588	20
172.99974	2
179.06035	5
185.05959	4
186.02284	15
187.03069	26
188.03383	3
199.03093	3
202.0777	14
203.02567	3
203.08559	4
204.03349	3
213.01073	1
214.01701	5
215.02562	359
215.08556	9
216.02898	45
216.09381	3
217.10121	12
218.07288	2
218.10931	4
226.07773	39
227.08568	79
228.09348	204
229.0967	29
229.10135	32
230.10509	7
231.0206	48
231.08055	3
232.02847	165
233.03635	241
234.03958	31
235.04129	2
244.08838	20
245.09631	35
246.10428	36
247.10757	7
248.02332	10
249.03124	58
250.03453	8
289.04138	22
290.04431	4
299.04697	3
307.05191	30
325.06241	999
326.06943	660
327.07401	110
