Mass spectrum: Cuminal; GC-EI-FT; MS; Positive
Name: Cuminal
Name: Cuminaldehyde
Class: Natural Product 
Formula: C10H12O
Exact mass: 148.08882
SMILES: CC(C)C1=CC=C(C=C1)C=O
InChI: InChI=1S/C10H12O/c1-8(2)10-5-3-9(7-11)4-6-10/h3-8H,1-2H3
Instrument: Trace 1310 GC, Thermo Scientific; Q Exactive Orbitrap, Thermo Scientific
Instrument type: GC-EI-FT
Ms type: MS
Ion mode: POSITIVE
Retention time: 6.17
Base peak: 133.0648
m/z	relative intensity
55.01791	12
63.02298	15
74.01518	9
75.02302	16
77.0386	314
78.04647	99
79.05427	301
86.01518	1
88.03084	1
91.05428	388
92.05766	31
95.04922	10
102.04649	50
103.05427	323
104.06212	69
105.06995	942
106.07332	86
115.05431	135
117.06996	30
119.0856	612
120.09346	121
129.06996	9
131.04927	52
132.05708	18
133.06485	999
134.06824	100
143.04929	1
146.07271	7
147.08049	146
149.0917	44
