Mass spectrum: PBDE-66; GC-EI-FT; MS; Positive; CE: 35
Name: PBDE-66
Name: 1,2-dibromo-4-(2,4-dibromophenoxy)benzene
Class: Non-Natural Product; Brominated Flame Retardant
Formula: C12H6Br4O
Exact mass: 481.7152
SMILES: C1=CC(=CC=C1OC2=C(C(=C(C=C2)Br)Br)Br)Br
InChI: InChI=1S/C12H6Br4O/c13-7-1-3-8(4-2-7)17-10-6-5-9(14)11(15)12(10)16/h1-6H
Instrument: Trace 1310 GC, Thermo Scientific; Q Exactive Orbitrap, Thermo Scientific
Instrument type: GC-EI-FT
Ms type: MS
Ion mode: POSITIVE
Collision energy: 35 eV
Retention time: 24.31125
Base peak: 325.8752
m/z	relative intensity
104.05772	2
104.06226	10
107.04924	3
107.073	2
108.09348	1
108.48233	37
108.98379	6
109.00732	7
109.1014	4
109.48128	21
110.01534	18
110.10924	2
111.02302	40
111.04402	1
112.03089	17
113.03866	2
114.04649	3
114.06773	2
116.05782	2
116.06219	3
116.93343	12
117.06994	7
117.92368	5
118.07776	2
118.93146	20
118.99804	1
119.07291	1
119.08581	3
120.97723	1
121.10117	3
121.97566	3
122.01543	2
122.98352	14
123.11684	3
123.98251	12
125.03876	1
126.04653	1
127.05433	3
127.92577	5
128.06218	10
129.0659	2
129.06987	9
129.92368	6
130.07797	5
131.08545	5
131.91499	1
131.9996	4
133.06491	1
133.10117	5
134.01529	5
134.0365	1
134.10908	2
135.02301	3
136.0311	1
136.48267	2
137.03883	240
137.13275	3
138.04652	320
139.04871	3
139.05443	134
140.05777	11
140.93364	16
141.06976	3
141.9411	27
142.07782	4
142.93143	25
142.94933	15
143.07053	3
143.08565	7
143.93913	28
144.09364	19
144.94725	18
146.07246	4
146.10471	3
146.93846	5
146.98683	1
147.06578	2
147.11696	18
147.43738	2
147.93826	1
148.1248	7
149.09616	1
149.13277	2
151.92583	2
152.06203	3
152.9333	46
153.94106	94
154.93141	48
154.94441	6
154.98116	1
155.08571	1
155.93919	94
156.08087	1
156.09357	3
156.9427	3
157.08894	3
159.0805	1
160.08833	2
161.04709	2
161.09645	2
161.13258	2
161.93863	79
162.93751	151
162.96989	3
163.14809	2
163.43918	19
163.93663	76
164.9854	2
165.07016	3
166.04134	64
166.04306	5
166.07758	2
167.049	17
167.08545	2
168.05684	12
168.94682	1
168.98856	1
169.10123	2
169.93636	41
170.0726	3
170.09628	3
170.1086	1
170.84387	6
171.93398	34
172.12474	1
172.84206	15
174.14021	2
174.83986	6
175.14783	3
176.06194	1
176.98526	3
177.0656	1
177.16344	6
178.96484	2
183.11658	2
184.08795	1
184.95299	7
185.02658	1
185.13269	1
188.98523	1
189.16377	1
190.94896	5
191.00131	8
192.94716	11
192.99808	2
193.04993	2
193.1011	1
193.97972	1
194.10884	2
194.97751	1
195.05498	4
195.11719	1
196.84184	13
197.13283	1
198.83957	2
200.06181	1
200.10434	2
201.16359	1
204.11429	1
206.90572	1
208.07346	2
215.08524	2
215.17946	1
215.95729	2
216.96492	253
217.95566	1
217.96825	35
218.96307	276
219.96635	32
220.85945	71
221.08432	2
221.13281	2
221.86261	4
222.85732	155
223.8604	8
224.85524	73
227.17949	1
231.21108	2
232.8595	4
234.85713	3
234.97346	1
241.19519	1
243.95164	11
244.96005	19
245.96718	78
246.95795	26
246.97107	10
247.96579	80
248.8544	9
248.96956	11
250.8522	15
250.96854	1
251.86076	13
252.85039	8
255.1227	3
257.22638	1
260.86569	20
262.86365	27
264.86151	10
265.01996	2
270.87515	2
271.2428	1
272.87323	4
272.96619	25
274.96442	21
281.05133	8
282.05084	2
283.048	1
294.87482	12
295.10373	1
296.87329	23
296.89117	3
298.87106	6
298.88956	8
300.88733	3
322.87012	2
323.87802	501
324.8782	7
324.88135	66
324.98669	2
325.86731	9
325.87518	999
326.87991	128
326.96579	1
327.87338	476
328.87766	61
329.87888	5
341.01831	5
355.0708	2
376.79977	12
378.79852	2
380.79636	4
393.35196	2
403.7879	12
403.8053	17
405.78537	14
405.80292	50
406.8046	7
407.78223	5
407.7995	48
408.8045	6
409.79828	17
429.08798	1
481.71417	70
482.71777	8
483.71207	241
484.71567	34
485.71088	399
486.71487	40
487.70767	235
488.71228	23
489.70502	62
490.70978	9
563.14654	1
