Mass spectrum: 7-Acetyl-6-ethyl-1,1,4,4-tetramethyltetralin; GC-EI-FT; MS; Positive
Name: 7-Acetyl-6-ethyl-1,1,4,4-tetramethyltetralin
Name: Versalide
Class: Non-Natural Product; Personal Care Product
Formula: C18H26O
Exact mass: 258.19837
SMILES: CCC1=CC2=C(C=C1C(=O)C)C(CCC2(C)C)(C)C
InChI: InChI=1S/C18H26O/c1-7-13-10-15-16(11-14(13)12(2)19)18(5,6)9-8-17(15,3)4/h10-11H,7-9H2,1-6H3
Instrument: Trace 1310 GC, Thermo Scientific; Q Exactive Orbitrap, Thermo Scientific
Instrument type: GC-EI-FT
Ms type: MS
Ion mode: POSITIVE
Retention time: 8.54
Base peak: 243.1743
m/z	relative intensity
53.09796	2
57.06991	22
60.79224	14
62.01516	2
69.06992	5
75.02298	5
76.0308	12
79.05426	8
87.02295	3
91.05427	47
102.04645	9
105.06994	18
115.05426	124
117.06991	66
126.04646	9
128.06206	198
129.06988	184
130.0733	32
131.08559	91
141.06987	164
143.08554	149
145.10118	116
150.04645	5
151.05426	8
152.06206	46
155.0855	116
157.10117	144
159.11679	255
164.06206	4
166.07773	14
169.10117	53
171.11678	130
173.13246	24
178.07773	7
181.10115	9
183.08044	29
185.09605	74
187.11166	282
197.09608	18
199.14807	66
201.16371	82
213.12734	22
225.16379	3
243.1743	999
244.17772	181
258.19788	197
