Mass spectrum: (trans,trans)-4-Methoxy-4-propyl-1,1-bicyclohexyl; GC-EI-FT; MS; Positive
Name: (trans,trans)-4-Methoxy-4-propyl-1,1-bicyclohexyl
Name: 1-Methoxy-4-(4-propylcyclohexyl)cyclohexane
Class: Non-Natural Product; Industrial Chemical
Formula: C16H30O
Exact mass: 238.22967
SMILES: CCCC1CCC(CC1)C2CCC(CC2)OC
InChI: InChI=1S/C16H30O/c1-3-4-13-5-7-14(8-6-13)15-9-11-16(17-2)12-10-15/h13-16H,3-12H2,1-2H3
Instrument: Trace 1310 GC, Thermo Scientific; Q Exactive Orbitrap, Thermo Scientific
Instrument type: GC-EI-FT
Ms type: MS
Ion mode: POSITIVE
Retention time: 8.64
Base peak: 81.06989
m/z	relative intensity
53.03862	14
55.05423	156
57.0699	31
63.02299	1
65.03861	20
67.05421	426
69.06988	218
71.04916	160
77.03859	65
79.05421	398
81.06988	999
82.07769	484
83.0855	263
91.05424	93
92.06207	24
94.07773	91
95.08552	332
103.05424	3
107.08553	141
109.10118	307
117.0699	4
121.10117	210
122.10899	243
124.12469	129
133.10121	10
135.11682	143
147.11682	3
161.13243	7
163.14803	399
177.16368	185
205.19496	2
