Mass spectrum: DMP; GC-EI-FT; MS; Positive
Name: DMP
Name: Dimethyl phthalate
Class: Non-Natural Product; Phthalate
Formula: C10H10O4
Exact mass: 194.05791
SMILES: COC(=O)C1=CC=CC=C1C(=O)OC
InChI: InChI=1S/C10H10O4/c1-13-9(11)7-5-3-4-6-8(7)10(12)14-2/h3-6H,1-2H3
Instrument: Thermo Scientific Q Exactive GC Hybrid Quadrupol-Orbitrap
Instrument type: GC-EI-FT
Ms type: MS
Ion mode: POSITIVE
Base peak: 163.0386
m/z	relative intensity
51.02293	3
63.02289	6
64.03079	8
65.03854	2
66.04636	2
74.01504	4
75.02299	8
76.03079	49
77.03854	132
78.04192	10
79.05422	21
80.0575	1
91.01788	2
91.05422	6
92.02576	58
92.06204	2
93.02916	4
95.04913	3
104.0258	31
105.03358	35
106.03696	2
107.04923	4
119.01296	7
120.02064	16
121.02823	2
132.02074	4
133.02823	162
134.03192	15
135.04404	48
136.04727	5
149.02344	4
162.03107	3
163.00285	1
163.03864	999
163.0769	2
164.04201	99
165.04288	6
193.04922	3
194.05728	2
