Mass spectrum: Dibutyl phthalate; GC-EI-FT; MS; Positive
Name: Dibutyl phthalate
Name: dibutyl benzene-1,2-dicarboxylate
Class: Non-Natural Product; Phthalate
Formula: C16H22O4
Exact mass: 278.15181
SMILES: CCCCOC(=O)C1=CC=CC=C1C(=O)OCCCC
InChI: InChI=1S/C16H22O4/c1-3-5-11-19-15(17)13-9-7-8-10-14(13)16(18)20-12-6-4-2/h7-10H,3-6,11-12H2,1-2H3
Instrument: Thermo Scientific Q Exactive GC Hybrid Quadrupol-Orbitrap
Instrument type: GC-EI-FT
Ms type: MS
Ion mode: POSITIVE
Base peak: 149.02347
m/z	relative intensity
50.01519	2
65.03857	13
74.01518	1
75.02301	2
76.03085	18
77.03414	1
77.03861	5
79.05419	2
91.05436	1
93.03365	9
104.02585	20
105.02936	2
105.03355	18
106.0369	1
121.02845	33
121.03964	8
122.03199	2
122.03646	7
123.04427	6
132.02092	1
135.04417	4
148.01541	1
148.05188	1
149.02347	999
149.53447	0
150.02683	85
151.02768	5
151.03029	2
159.08052	1
160.08853	5
167.03397	1
177.09134	2
205.08612	26
206.08939	3
223.09671	27
224.1001	4
233.15392	2
278.15143	1
