Mass spectrum: cis-chlordane; GC-EI-FT; MS; Positive
Name: cis-chlordane
Name: (1R,2S,3R,4S,6S,7S)-1,3,4,7,8,9,10,10-octachlorotricyclo[5.2.1.02,6]dec-8-ene
Class: Non-Natural Product; Organochlorine
Formula: C10H6Cl8
Exact mass: 405.79777
SMILES: C1[C@H]2[C@@H]([C@H]([C@H]1Cl)Cl)[C@]3(C(=C([C@@]2(C3(Cl)Cl)Cl)Cl)Cl)Cl
InChI: InChI=1S/C10H6Cl8/c11-3-1-2-4(5(3)12)9(16)7(14)6(13)8(2,15)10(9,17)18/h2-5H,1H2/t2-,3-,4-,5-,8-,9+/m0/s1
Instrument: Trace 1310 GC, Thermo Scientific; Q Exactive Orbitrap, Thermo Scientific
Instrument type: GC-EI-FT
Ms type: MS
Ion mode: POSITIVE
Retention time: 15.87538
Base peak: 236.8404
m/z	relative intensity
51.02294	32
53.03864	38
54.04638	3
55.01785	21
55.05423	68
56.06208	220
57.03348	11
57.0699	236
58.04137	6
58.0733	10
59.04913	5
60.984	11
61.00728	36
61.0285	3
62.01523	39
62.96323	20
63.02293	24
63.96145	21
64.03082	6
64.96922	27
65.03857	166
66.04639	321
67.05421	52
68.02564	12
68.04962	12
68.06212	17
69.03356	38
69.06991	6
70.0414	8
70.07777	6
70.96835	19
71.01281	3
71.08562	9
71.9762	16
72.98396	108
73.00739	20
74.01522	132
74.98102	29
74.99964	159
75.023	66
76.0308	2
76.99669	65
77.03857	36
77.97702	26
78.04192	7
78.04654	13
79.05421	33
80.00351	22
80.06208	6
81.03361	17
81.06983	18
81.93721	17
82.0414	4
82.94495	181
83.04923	11
83.0856	25
83.93426	7
83.97617	103
83.9995	29
84.05698	9
84.08079	6
84.09339	10
84.48022	1
84.94216	133
84.98401	158
85.00733	77
85.02839	13
85.0648	14
85.98252	78
86.01524	87
86.93909	16
86.98108	30
86.99963	36
87.02289	59
87.04404	2
88.95112	6
89.01529	58
89.03853	44
89.99584	1
90.04653	14
91.01241	14
91.05437	11
92.05771	2
93.03365	14
93.03871	34
93.07002	7
93.93715	13
94.04133	10
94.07778	12
94.96825	104
95.0366	7
95.0856	6
95.97607	72
96.00408	10
96.02048	4
96.08088	7
96.09347	10
96.96545	68
96.98412	170
97.00748	23
97.02848	10
97.05236	1
97.06494	3
97.10113	12
97.98264	83
98.01519	173
98.95779	14
98.98091	40
98.99955	134
99.02305	171
99.04425	4
100.00739	251
100.02644	26
100.05195	3
100.99669	46
101.0152	109
101.96448	139
102.00456	89
102.04658	16
102.9631	151
103.01231	29
103.05428	4
103.96167	55
104.04961	2
104.06216	5
105.93735	54
105.99908	5
106.0779	4
106.94511	213
107.08561	19
107.93427	43
107.97614	121
108.06831	3
108.08067	1
108.94213	155
108.96075	163
108.98397	157
109.95518	9
109.97311	44
110.03633	3
110.09647	4
110.10906	9
110.93911	21
110.95762	109
110.98114	49
110.99965	25
111.0442	5
111.05521	3
111.08028	7
111.11681	10
111.95219	6
112.01549	2
112.06322	2
112.08838	6
112.95476	11
113.03857	22
113.05985	1
113.43953	5
113.96465	23
113.99635	2
114.04667	16
114.06759	5
114.97224	74
115.03913	4
115.05435	4
115.97086	42
116.90612	327
116.96958	22
117.06979	28
117.42168	40
117.93728	63
118.07314	7
118.07763	5
118.42024	56
118.90311	317
118.94523	116
118.99775	5
119.04906	12
119.41866	42
119.94361	152
119.97603	45
120.08083	7
120.09347	8
120.90031	110
120.94209	76
120.96062	46
120.98414	83
121.07602	3
121.95017	17
122.01519	44
122.07278	5
122.08399	5
122.09666	5
122.10889	4
122.97642	56
122.99986	127
123.02293	57
123.95682	1
124.01573	5
124.03089	55
124.05206	9
124.97364	2
124.99694	41
125.01536	54
125.03856	67
125.05997	3
125.07123	4
125.13258	6
126.03122	3
126.04639	146
126.06767	3
127.01229	18
127.05417	15
127.07531	1
128.00758	3
128.062	11
129.05473	5
129.07008	8
129.93736	191
130.02328	6
130.94519	135
130.9915	5
131.04935	5
131.06029	6
131.08568	2
131.42786	21
131.93427	117
131.95296	83
131.97612	61
132.42651	9
132.95146	296
132.98398	229
133.01356	19
133.10136	8
133.93143	9
133.94972	74
133.96846	55
133.99176	100
134.0363	4
134.0963	6
134.10922	7
134.9483	21
134.95796	83
134.97649	327
134.9996	65
135.96194	17
135.98874	39
136.00746	226
136.11224	7
136.1246	4
136.92421	32
136.95566	101
136.97325	120
136.9969	23
137.01541	29
137.05975	1
137.93198	36
138.00456	79
138.06767	4
138.95252	50
138.97063	7
139.0058	21
139.11185	3
140.90601	478
140.96889	1
141.01056	4
142.07754	15
142.90324	490
142.9216	70
142.94499	117
142.9661	4
143.07303	8
143.10649	7
143.95282	47
144.03438	1
144.90016	135
144.9189	61
144.94222	70
144.96057	23
145.06514	9
145.10109	9
145.93162	2
145.95007	20
145.96848	84
146.09639	9
146.10918	1
146.89717	7
146.9158	11
146.93864	20
146.97652	12
146.9994	47
147.96547	54
148.00764	38
148.06313	2
148.96504	6
149.01531	61
149.05974	4
149.13246	6
149.93184	16
149.96336	27
150.93047	5
151.0121	9
151.08682	7
151.14813	2
152.06224	10
152.90611	21
153.00357	6
153.91364	19
154.07774	3
154.90321	29
154.92184	23
154.94511	46
155.06055	4
155.08543	8
155.91072	23
155.95305	18
156.90071	22
156.91864	13
156.94185	34
156.96083	237
156.98407	7
157.96828	27
157.99159	37
158.10902	3
158.89835	17
158.95746	140
158.97629	475
158.99939	86
159.96578	25
159.98421	511
160.00755	411
160.95464	24
160.97325	313
160.98752	57
161.01166	80
161.09612	1
161.13231	2
161.97705	18
161.98086	326
162.00464	137
162.97014	56
162.98465	23
163.00549	56
163.0757	4
163.14838	2
163.98415	69
164.90602	178
164.94919	8
165.00272	26
165.98149	1
165.9997	11
166.0732	5
166.90326	167
166.92175	109
166.94511	37
167.08556	5
167.92984	13
167.95264	54
167.99701	3
168.89986	51
168.91873	120
168.94171	76
168.96053	139
168.98828	4
169.00479	7
169.10138	7
169.92294	8
169.94969	38
169.96866	913
170.10915	7
170.91557	40
170.93451	47
170.95769	87
170.97632	196
171.93845	2
171.96564	574
172.97343	161
172.99174	9
173.09621	3
173.96226	90
173.9808	17
174.0424	3
174.96393	67
176.90594	10
177.91351	31
178.87965	15
178.96501	4
179.0602	3
179.91128	26
179.92949	104
180.93753	57
180.96103	23
180.98846	5
181.06428	1
181.92636	102
181.96858	24
181.98981	25
182.91623	17
182.93411	51
182.97595	127
183.92345	29
183.96562	11
184.9316	14
184.97343	85
186.97084	34
186.98244	90
187.87488	8
188.968	17
188.97983	52
189.02161	48
189.87184	15
190.92156	469
191.0009	19
191.01858	14
191.08519	3
191.14333	3
191.92935	70
192.00572	11
192.91855	469
192.93724	412
192.961	15
192.98029	8
193.92615	71
193.94511	149
193.96829	264
194.00601	6
194.0967	5
194.91557	151
194.93456	403
194.95284	288
194.97624	85
194.99597	3
195.92358	13
195.94199	136
195.96552	178
195.98393	248
196.91269	15
196.9312	128
196.94972	288
196.97351	25
196.9876	16
197.13236	6
197.94518	59
197.96237	41
197.98105	169
198.94739	84
198.97073	33
198.9843	17
199.14784	1
199.961	18
199.97826	30
200.88231	247
200.96852	20
201.89079	19
201.93945	3
201.95763	8
201.97612	5
202.87972	324
202.92172	48
203.92911	642
204.87724	139
204.91872	43
204.93703	427
205.92625	623
205.9453	72
205.97067	4
206.87396	29
206.91629	30
206.9346	418
206.95297	202
207.03212	123
207.1017	9
207.92389	182
207.94238	73
207.9561	18
208.03177	12
208.93164	158
208.9502	176
209.02872	8
209.92058	18
209.95323	12
210.0112	2
210.92232	25
210.9469	57
211.06049	1
212.88238	6
213.8903	97
213.95319	10
214.89865	19
214.96114	6
215.86992	14
215.88776	114
215.9295	2
216.89574	29
216.93764	100
217.86673	10
217.88502	46
217.92628	6
218.93468	92
219.91063	1
219.94214	16
220.93207	55
222.92899	24
222.98262	50
224.88268	41
224.97926	41
225.89047	62
226.07829	3
226.87967	46
226.89879	172
227.88782	74
227.90637	28
227.92946	18
228.87709	26
228.89574	218
228.91412	109
228.9375	22
229.88484	37
229.90355	31
229.92694	13
229.94556	238
230.89264	109
230.91136	140
230.93504	18
230.95294	17
231.94218	211
232.89017	18
232.90837	83
232.93214	39
232.9455	28
233.92149	3
233.93985	101
234.84407	632
234.9292	39
234.94752	9
235.85219	95
235.91882	2
235.93724	39
236.84041	999
236.86	5
236.92653	13
237.84967	144
237.89046	29
238.83752	617
238.85632	11
238.89798	157
239.8466	95
239.88798	44
239.90604	85
240.83487	192
240.85393	12
240.89506	201
240.91422	126
241.81471	6
241.84297	15
241.88435	20
241.90399	104
242.83208	27
242.89293	107
242.91147	148
243.90103	45
244.90871	68
245.89796	8
246.90578	13
247.85172	22
248.94112	5
249.84912	49
250.85667	15
250.91959	21
250.93788	8
251.84581	32
251.90695	5
252.89571	23
253.84279	11
254.89224	18
254.9119	14
255.84056	4
256.90906	10
258.90637	8
259.91431	13
260.85916	306
261.86261	13
262.85696	498
263.86054	24
263.90646	228
264.85355	309
264.89044	74
264.91611	47
265.85693	17
265.90335	342
266.85077	90
266.88806	112
266.91272	58
267.90064	151
268.88483	74
268.90912	86
269.81256	223
269.89673	47
270.81665	4
270.90631	81
271.80957	441
272.81287	13
272.90347	36
273.80704	359
273.91168	7
274.8569	18
274.87531	72
275.80441	157
275.86468	12
275.90897	1
276.85342	8
276.87198	135
276.8905	14
277.80151	31
277.86115	10
278.86957	75
278.88815	24
280.86704	25
280.88473	20
281.05142	3
282.90155	22
284.8176	17
288.81256	2
294.88214	27
296.81845	13
296.88019	20
298.81546	5
298.87515	131
299.88284	19
300.87189	215
300.89014	5
301.87997	33
302.86896	123
302.88742	28
303.71237	8
304.86563	45
304.8851	42
306.88333	36
308.87918	21
310.83313	17
334.85284	75
336.84936	137
336.87625	52
338.84564	110
338.87283	81
340.84283	37
340.8707	56
342.83896	10
370.82858	303
371.83279	10
372.82565	623
373.82831	61
374.8233	603
375.82642	57
376.8193	337
377.82272	29
378.81576	101
380.81406	18
407.7951	10
409.79126	14
411.78864	3
