Mass spectrum: PBDE-47; GC-EI-FT; MS; Positive; CE: 35
Name: PBDE-47
Name: 2,2,4,4-Tetrabromodiphenyl ether
Class: Non-Natural Product; Brominated Flame Retardant
Formula: C12H6Br4O
Exact mass: 481.7152
SMILES: C1=CC(=C(C=C1Br)Br)OC2=C(C=C(C=C2)Br)Br
InChI: InChI=1S/C12H6Br4O/c13-7-1-3-11(9(15)5-7)17-12-4-2-8(14)6-10(12)16/h1-6H
Instrument: Trace 1310 GC, Thermo Scientific; Q Exactive Orbitrap, Thermo Scientific
Instrument type: GC-EI-FT
Ms type: MS
Ion mode: POSITIVE
Collision energy: 35 eV
Retention time: 23.65835
Base peak: 325.8752
m/z	relative intensity
101.05972	1
102.04647	2
102.96684	1
104.06225	2
105.06999	6
106.0651	1
108.05726	2
108.48232	43
108.98406	4
109.00732	15
109.10149	2
109.48128	39
109.98281	2
110.01531	27
111.02302	43
112.03098	19
113.03869	13
113.49904	2
114.06771	3
114.99954	3
115.05449	15
116.06215	2
116.9334	26
117.06993	10
118.03758	1
118.07778	5
118.93144	30
119.08582	3
120.08096	2
121.06116	1
121.9417	2
122.06884	2
122.98351	8
123.11684	2
123.98251	8
125.02333	1
126.06747	2
127.05438	4
127.92582	11
128.06215	8
128.93341	2
129.00366	10
129.06987	8
129.92363	11
130.00275	2
130.07335	2
130.07796	8
130.99162	1
131.0854	2
131.99956	2
132.08098	2
132.0932	2
133.01376	8
133.10114	3
134.01523	1
134.03641	3
135.11691	2
136.03062	5
136.48262	3
137.03882	287
137.48157	3
138.04652	402
139.05437	122
139.07558	1
140.05777	11
140.93364	32
141.06975	7
141.94161	33
142.07779	6
142.9314	30
142.94933	11
143.07048	3
143.08562	5
143.9391	36
144.04437	6
144.05696	2
144.08106	2
144.9473	15
145.05216	7
146.07242	3
147.07199	3
147.08055	7
148.07544	18
148.12477	1
148.95613	2
149.0834	12
149.13226	8
150.09129	6
151.0751	1
152.06204	2
152.93324	52
153.06987	2
153.94107	98
154.93138	51
154.98163	1
155.08575	1
155.93921	97
156.09351	5
156.94264	8
157.10104	2
157.95044	1
159.11711	2
160.95152	7
161.93861	86
162.44028	8
162.9375	177
162.96988	2
163.05421	1
163.43918	22
163.93663	85
164.43855	8
165.07014	9
166.04131	39
166.0735	3
166.94933	3
167.08539	1
167.45679	12
168.05695	6
168.45633	4
168.95677	4
168.95795	6
168.9886	1
169.45514	1
169.93636	63
170.0724	1
170.84419	12
171.84729	11
171.93394	65
172.8421	23
173.13266	2
174.83969	11
175.07567	2
175.84341	10
176.98528	2
178.0815	5
179.03421	1
180.09703	3
183.11717	3
184.08792	2
184.95293	4
185.09602	5
185.1326	1
187.14839	1
190.94882	22
192.94704	19
193.04985	2
194.84381	10
196.84195	20
197.85378	9
198.84026	9
199.14835	1
199.85222	1
200.98677	2
201.84975	2
210.02892	2
212.08324	2
213.09076	2
215.95732	16
216.9649	355
217.95454	14
217.96829	41
218.96306	351
219.96632	37
220.85945	121
221.08423	1
221.86342	7
222.8573	235
223.86054	8
224.85527	112
226.87099	2
227.03981	1
228.86848	6
228.99709	1
229.99966	3
232.85942	5
234.85738	10
243.95166	8
244.9601	23
245.94948	9
245.96818	71
246.95786	22
246.97115	9
247.96585	73
248.85442	23
248.96936	8
250.85222	40
251.8606	9
252.85024	21
253.85886	2
255.99196	7
258.00748	12
258.1254	1
260.00632	15
260.86557	17
262.86356	37
264.86136	18
272.96631	34
273.96991	3
274.96448	32
277.07837	2
284.00269	2
285.00568	3
294.87509	15
296.87305	28
298.87048	15
307.90961	3
308.9184	3
323.87802	500
324.88123	62
324.98633	2
325.87518	999
326.87988	114
327.87338	477
328.87781	57
329.88037	3
334.91516	6
336.91244	3
338.91074	5
341.01816	1
342.01767	1
376.79999	7
378.79614	7
403.78555	10
403.80514	11
405.78522	11
405.80276	39
407.79971	37
409.79816	11
415.8277	2
417.84192	6
481.71408	112
482.71704	12
483.71204	432
484.71561	53
485.71082	650
486.71481	69
487.70761	421
488.71222	57
489.70782	107
490.7102	13
494.74872	6
496.74774	4
497.75064	10
498.74423	5
501.74676	2
