Mass spectrum: PCB-206; GC-EI-FT; MS; Positive
Name: PCB-206
Name: 2,2',3,3',4,4',5,5',6-Nonachlorobiphenyl
Formula: C12HCl9
Exact mass: 459.72750
SMILES: C1=C(C(=C(C(=C1Cl)Cl)Cl)Cl)C2=C(C(=C(C(=C2Cl)Cl)Cl)Cl)Cl
InChI: InChI=1S/C12HCl9/c13-3-1-2(5(14)9(18)6(3)15)4-7(16)10(19)12(21)11(20)8(4)17/h1H
Instrument: Trace 1310 GC, Thermo Scientific; Q Exactive Orbitrap, Thermo Scientific
Instrument type: GC-EI-FT
Ms type: MS
Ion mode: POSITIVE
Retention time: 25.56108
Base peak: 321.848
m/z	relative intensity
51.02296	4
52.03077	4
53.03864	3
54.01006	2
54.03392	4
55.01785	17
56.04948	8
56.06208	84
56.25943	5
57.06551	1
58.04139	7
61.01049	26
62.01519	2
63.02292	7
63.96144	7
65.03856	4
65.9996	28
66.04652	3
68.0496	5
68.99476	7
69.05739	3
70.06519	2
70.07776	9
71.01282	1
71.99949	17
73.00739	28
73.04691	11
74.01524	13
74.03622	4
75.02613	7
75.04376	6
80.0496	27
80.06207	23
81.00484	7
81.0336	7
81.52698	5
82.06513	12
82.07771	1
82.96826	11
83.07303	6
83.97617	22
83.98788	34
83.99948	131
84.05696	7
85.00735	94
85.02837	5
86.01528	16
86.50653	13
89.96699	7
89.98783	295
90.04646	1
90.48949	50
90.98632	88
92.05768	10
92.06218	6
93.03366	8
94.53466	7
94.96848	93
95.03661	1
95.97607	30
96.00433	56
96.99387	10
97.00743	42
97.10138	8
97.49363	1
97.97328	4
98.01519	8
98.07275	4
99.04421	4
100.00578	29
102.96675	11
103.00321	5
103.48686	20
104.98231	1
105.03345	7
105.04478	7
105.93732	25
106.94514	25
106.96853	124
107.04936	17
107.07307	4
107.47235	148
107.97613	172
107.99958	170
108.05714	5
108.06836	1
108.47065	94
108.94215	13
108.96534	31
109.00745	182
109.02855	4
109.97343	30
110.03631	4
110.10908	2
111.04427	3
111.11679	15
112.01582	1
112.12024	2
114.0676	8
115.00304	10
115.05434	10
116.98249	7
117.07011	11
117.93724	77
118.0525	5
118.07794	6
118.96854	80
119.03442	5
119.93441	54
119.9764	34
119.99964	152
120.96528	22
121.00742	66
121.97332	5
122.07275	3
122.08365	2
124.00574	20
124.00611	12
124.05207	1
124.08842	1
124.45272	38
124.9568	126
125.05998	4
125.07086	4
125.45158	44
125.95529	106
126.03106	3
126.95393	32
127.05441	3
128.062	10
129.05475	2
129.93742	64
130.07776	6
130.94524	29
130.96848	61
130.99146	1
131.26064	6
131.93433	44
131.97617	171
131.99937	275
132.05722	8
132.92273	4
132.94206	21
133.01277	183
133.0136	215
133.97345	57
134.01343	19
134.04756	4
134.09672	7
134.99278	5
135.02951	2
136.05208	3
136.08839	9
136.12453	16
137.05989	3
137.07095	8
137.13248	15
138.06769	1
140.90593	64
141.93721	241
142.01901	7
142.07758	16
142.44138	189
142.90318	65
142.94499	89
142.96832	102
143.07304	1
143.08539	5
143.4397	228
143.93424	192
143.97595	82
143.99959	509
144.08069	3
144.09331	18
144.43834	107
144.94232	43
144.9652	35
144.97978	2
145.00737	380
145.06497	19
145.93117	21
145.96832	35
146.01067	70
146.10918	4
146.93867	3
147.04398	1
147.06537	10
147.96553	2
148.05202	3
148.08829	4
148.91766	15
148.95433	5
150.02698	9
150.10393	2
151.14815	5
152.02354	2
152.06223	29
152.90613	21
153.02136	3
153.9372	66
154.07776	15
154.90323	20
154.94514	23
154.96844	28
155.93425	37
155.976	87
156.09326	17
157.0649	7
157.97363	25
158.07271	2
158.10906	2
159.08067	4
159.92554	435
160.42691	83
160.9239	710
161.42567	105
161.92281	448
162.4243	49
162.9211	127
162.96951	16
162.99696	7
163.05449	2
163.14825	12
163.91939	22
164.9061	26
165.16382	3
165.93718	149
165.9389	7
166.9033	30
166.94556	31
166.96812	18
167.93436	84
167.97621	32
168.93114	19
168.94232	18
169.10144	5
170.09666	1
170.10916	1
171.08078	8
174.10405	6
175.97752	6
176.06227	3
176.90587	57
176.98541	18
177.41025	54
177.90451	79
177.93689	37
177.98488	1
178.07791	5
178.40872	112
178.90323	116
178.94518	22
178.96434	6
179.08528	9
179.40735	88
179.91084	72
179.93398	26
179.96442	18
179.97595	368
180.0007	4
180.40558	31
180.90945	29
180.98	31
180.98848	2
181.06496	3
181.97321	112
182.09715	1
182.97667	19
184.08815	3
185.09638	4
187.41414	23
188.41229	18
188.90599	13
188.98544	2
189.87186	19
189.937	63
191.00081	37
191.17952	4
191.93419	46
192.00056	9
192.98029	15
192.99809	5
193.01704	12
193.97994	6
194.89435	402
194.97699	2
195.01352	3
195.39626	52
195.89261	995
196.39441	124
196.89111	951
197.39316	113
197.88982	468
197.97435	7
198.39116	63
198.88858	153
198.95494	6
199.88667	27
201.91391	31
201.93701	28
202.07796	8
202.90302	23
203.00156	2
203.17935	13
203.91118	24
203.93462	15
205.01657	3
207.03047	11
207.03207	217
207.10179	6
208.03128	34
209.02965	21
210.02838	5
211.87497	10
211.99089	2
212.37906	50
213.16357	3
213.37758	120
213.93739	74
214.37546	152
214.94524	105
215.17938	1
215.37462	88
215.93452	59
215.95337	28
216.37297	36
216.9422	70
217.95048	18
218.93988	6
221.08443	7
222.93704	5
225.91422	34
227.91101	30
229.86337	55
230.86159	152
231.36322	17
231.86064	190
232.36179	26
232.8587	128
233.36014	14
233.85764	59
234.85576	17
236.21378	2
236.8835	17
236.95297	2
238.88013	20
240.30623	7
248.88213	7
248.90637	6
249.91354	353
250.88016	13
250.91698	33
251.00496	6
251.9111	341
252.91362	33
253.90782	108
254.91084	12
259.2421	5
261.87174	9
265.02008	18
266.0199	4
267.017	5
269.99576	2
271.24295	2
271.85172	16
273.84848	26
274.88019	16
275.84628	17
281.05145	9
282.05087	3
283.04806	15
283.87576	48
284.88336	134
285.87186	53
285.89215	32
286.87967	163
287.86923	29
287.88757	43
288.87692	80
289.88504	16
297.84897	16
302.89313	12
303.70956	7
304.89044	12
309.2583	1
312.95123	5
318.84485	13
319.85236	645
320.85519	76
321.84802	999
322.85232	114
323.84515	644
324.84897	78
324.98639	1
325.84195	186
326.84674	21
327.84003	31
346.81503	7
353.81375	12
354.82129	90
355.07046	2
355.80988	25
355.82788	32
356.81699	161
357.80658	24
357.82498	60
358.81491	130
359.82196	46
360.81119	54
361.81934	12
362.80942	6
366.32468	1
389.78976	231
390.79346	23
391.78619	482
392.79083	73
393.78296	471
394.7868	64
395.78058	240
396.78622	33
397.77811	71
398.78104	5
424.75882	55
426.75485	154
427.763	32
428.75156	162
429.7565	35
430.75043	100
432.74606	36
459.72861	115
460.7301	9
461.72409	353
462.72702	39
463.72144	437
464.72498	52
465.71887	327
466.72138	37
467.71588	149
468.71918	24
469.71191	45
