Mass spectrum: PCB-170; GC-EI-FT; MS; Positive
Name: PCB-170
Name: 2,2',3,3',4,4',5-Heptachlorobiphenyl
Class: Non-Natural Product; PCB
Formula: C12H3Cl7
Exact mass: 391.80544
SMILES: C1=CC(=C(C(=C1C2=CC(=C(C(=C2Cl)Cl)Cl)Cl)Cl)Cl)Cl
InChI: InChI=1S/C12H3Cl7/c13-6-2-1-4(8(15)10(6)17)5-3-7(14)11(18)12(19)9(5)16/h1-3H
Instrument: Trace 1310 GC, Thermo Scientific; Q Exactive Orbitrap, Thermo Scientific
Instrument type: GC-EI-FT
Ms type: MS
Ion mode: POSITIVE
Retention time: 22.27042
Base peak: 323.8641
m/z	relative intensity
52.03076	4
53.00226	4
53.03864	12
54.01004	2
54.03381	2
55.01786	13
55.04172	3
56.04947	3
56.06209	29
58.0733	7
59.03124	3
61.00738	29
62.01507	6
63.96144	8
64.9692	2
67.01797	2
67.04168	4
68.02565	7
68.99464	2
69.03356	3
69.06991	6
70.06512	5
70.07778	10
71.0128	3
71.08562	12
71.99947	3
72.0889	2
73.00738	36
73.02851	5
73.04691	5
73.06484	3
73.51115	17
74.01524	29
75.02615	2
75.04374	4
77.03857	13
77.98791	14
79.05421	20
80.96434	4
82.0414	4
83.01267	1
83.97616	14
83.9995	49
84.02064	1
84.05698	10
84.09339	5
84.98399	11
85.00736	92
85.06479	1
85.10123	6
85.97327	9
86.01524	31
86.03626	3
87.0229	9
87.04404	8
88.05189	5
88.95087	2
89.03854	10
89.98781	30
90.04652	6
90.49184	73
90.99563	42
91.05438	24
91.49028	22
92.06222	11
93.93739	4
94.02882	2
94.96825	18
95.06046	1
95.97608	26
96.02074	2
96.9937	20
96.99396	16
97.00746	33
97.02853	4
97.06493	2
97.4936	2
97.97325	5
98.0152	93
98.03628	10
98.05997	2
98.10455	3
99.02305	3
99.0442	2
99.06776	3
102.04635	6
102.96674	4
104.98234	2
105.04476	1
105.06573	3
106.04124	6
106.94512	28
106.96826	7
107.47232	10
107.97613	131
107.99956	20
108.05688	4
108.48009	59
108.94206	8
108.98396	60
109.00747	98
109.02864	3
109.0762	1
109.47873	25
109.97309	45
110.0152	57
110.03632	3
110.10912	2
110.98112	7
111.02286	4
111.04418	4
111.0552	3
111.08065	3
111.11681	6
112.01547	2
113.05983	4
114.0313	5
115.00305	2
115.05438	15
116.04963	3
116.06208	2
117.05717	4
117.06982	11
117.93729	18
118.07324	2
118.07763	8
118.94522	17
118.9682	1
119.03648	4
119.04938	2
119.9344	19
119.97607	38
119.99968	87
120.94205	5
120.97743	3
121.00742	42
121.06501	5
121.10141	16
121.97328	12
122.01523	89
122.07291	3
122.08398	2
122.10902	9
123.00752	2
123.0185	17
123.05512	3
124.05204	2
124.07578	3
124.11213	1
124.12474	2
125.05995	3
125.09636	2
125.13247	3
125.46065	27
125.96444	320
126.04644	9
126.46625	60
126.96314	243
127.46487	42
127.96174	86
128.05771	1
128.46309	5
128.95996	10
129.05472	3
129.09094	1
130.06508	4
130.07784	9
130.94522	41
131.04939	5
131.94365	16
131.97623	159
131.99942	41
132.06818	1
132.08907	4
132.09335	4
132.92273	3
132.94214	20
132.98408	68
133.01366	60
133.97304	48
134.01506	7
134.04753	2
134.93945	4
134.97647	11
134.98111	22
134.99289	9
135.02278	10
135.0444	2
135.0805	2
136.05173	2
137.05977	6
137.13255	10
138.06766	4
139.07529	1
140.90601	8
141.93733	41
142.07762	7
142.90324	13
142.94504	155
143.08546	7
143.44922	40
143.94357	181
143.97603	30
143.99965	81
144.44807	40
144.94232	106
144.98402	18
145.00743	76
145.03973	3
145.06462	4
145.44603	16
145.94058	34
145.96851	10
146.01492	340
146.44479	3
146.93877	16
146.98128	10
147.02292	158
147.04393	3
147.08038	8
147.93796	3
148.02637	16
148.0631	3
148.93526	3
149.02313	26
149.05971	3
149.09645	3
150.02644	4
150.04626	4
150.07874	1
150.14043	3
151.03897	2
151.07533	4
151.0863	3
151.14827	2
151.95013	10
152.06233	6
152.09448	2
152.14333	2
152.45401	12
152.90608	5
152.94872	15
153.00356	3
153.0696	3
153.45297	14
153.9372	10
154.06573	1
154.07771	4
154.94511	18
155.91071	9
155.93422	2
155.97604	82
156.94235	6
156.98404	39
157.45219	1
157.97311	23
157.9917	8
158.07274	6
158.45046	7
158.98112	10
159.08072	2
160.08852	3
160.12494	2
160.93329	513
161.09608	2
161.43509	65
161.9317	734
162.06723	2
162.4332	114
162.93051	499
162.96959	12
163.09357	1
163.43216	56
163.92902	168
164.43088	10
164.94928	20
165.06979	4
165.93703	19
166.07317	5
166.07776	7
166.9449	23
167.9339	8
167.95264	11
167.97595	11
168.05308	6
168.94176	23
168.96056	9
168.98825	3
169.94968	13
170.9577	9
170.9997	11
171.11681	2
172.00256	3
173.09618	4
174.1404	3
175.07529	3
175.1481	4
175.97763	5
176.15567	8
177.06956	3
177.16402	7
177.91353	15
178.07802	3
178.41763	61
178.91243	24
178.96446	5
178.98175	2
179.41638	123
179.91068	36
179.97609	46
180.41495	88
180.90941	17
180.961	13
180.98387	66
181.06491	2
181.4133	22
181.97318	15
181.99167	344
182.41205	11
182.98061	30
182.99522	43
183.08028	3
183.98909	117
184.00711	4
184.99231	13
189.0699	6
189.164	5
189.87181	8
189.93712	2
190.09878	1
190.9449	9
191.1433	2
191.95302	37
192.94226	2
192.96097	9
193.01652	4
193.05012	3
193.10126	3
193.9496	9
195.90227	64
196.90086	150
197.13232	3
197.40221	9
197.89896	149
197.97504	2
198.40105	18
198.89769	70
198.99481	2
199.89653	13
202.07794	3
202.92186	15
203.08534	2
203.91034	2
203.92909	13
204.11443	3
204.91898	28
204.96062	3
205.92703	10
206.95779	8
207.03218	68
207.10167	3
208.0313	13
209.02887	3
210.02832	4
211.00851	3
211.99	2
214.94513	3
215.95258	157
216.91885	11
216.96101	202
217.94966	48
217.96925	43
218.95828	105
219.94635	11
219.9605	24
220.9548	10
223.02722	2
225.91415	14
227.91095	14
234.97165	15
237.89043	14
239.88792	9
241.1953	2
248.98877	6
250.92186	31
251.91121	5
251.92955	463
252.91852	23
252.93228	45
253.92647	437
254.91623	2
254.92926	48
255.92416	140
256.92722	19
257.92087	10
261.88986	5
263.88809	10
267.01694	2
268.99606	2
282.04959	4
285.89133	51
286.89825	103
287.8876	72
287.90585	18
288.896	126
289.88513	39
289.89954	25
290.89328	67
291.90064	6
292.88944	12
297.84888	2
299.06104	1
301.05823	4
303.71374	2
320.86023	6
321.86679	631
322.86661	15
322.86972	80
323.8641	999
324.86716	132
325.86115	541
326.86386	72
326.96561	2
327.85764	209
328.86154	15
329.85443	31
341.01874	5
355.06891	3
356.83514	158
357.83554	7
357.83917	24
358.83331	280
359.83286	9
359.83835	41
360.82983	210
361.83402	35
362.82809	64
364.82425	18
391.80518	180
392.8078	24
393.80216	389
394.80432	35
395.79974	351
395.82074	2
396.80136	46
397.79581	163
398.79804	10
399.79364	56
