Mass spectrum: Tris(1-methylethyl)silyl 2-methyl-2-propenoate; GC-EI-FT; MS; Positive
Name: Tris(1-methylethyl)silyl 2-methyl-2-propenoate
Name: Triisopropylsilyl methacrylate
Class: Non-Natural Product; Industrial Chemical
Formula: C13H26O2Si
Exact mass: 242.17021
SMILES: CC(C)[Si](C(C)C)(C(C)C)OC(=O)C(=C)C
InChI: InChI=1S/C13H26O2Si/c1-9(2)13(14)15-16(10(3)4,11(5)6)12(7)8/h10-12H,1H2,2-8H3
Instrument: Trace 1310 GC, Thermo Scientific; Q Exactive Orbitrap, Thermo Scientific
Instrument type: GC-EI-FT
Ms type: MS
Ion mode: POSITIVE
Retention time: 6.76
Base peak: 199.1147
m/z	relative intensity
58.02338	3
59.03116	39
61.01044	25
69.03349	87
73.04684	46
75.02609	68
77.00536	11
83.03118	11
85.04681	47
87.06251	3
97.04686	4
99.06248	32
101.04179	6
111.02611	4
113.00534	7
114.01321	10
115.02103	12
117.00026	3
127.02102	8
128.02885	12
129.03662	179
130.04007	19
133.0316	2
141.03665	5
143.05226	244
144.05566	27
147.04721	20
155.05226	14
156.06009	7
158.0713	11
161.06284	12
171.08348	299
172.08687	40
175.07848	13
199.11472	999
200.1181	154
211.11485	2
