Mass spectrum: Tricresyl phosphate; GC-EI-FT; MS; Positive
Name: Tricresyl phosphate
Name: tris(4-methylphenyl) phosphate
Class: Non-Natural Product; Organophosphate
Formula: C21H21O4P
Exact mass: 368.11775
SMILES: CC1=CC=C(C=C1)OP(=O)(OC2=CC=C(C=C2)C)OC3=CC=C(C=C3)C
InChI: InChI=1S/C21H21O4P/c1-16-4-10-19(11-5-16)23-26(22,24-20-12-6-17(2)7-13-20)25-21-14-8-18(3)9-15-21/h4-15H,1-3H3
Instrument: Thermo Scientific Q Exactive GC Hybrid Quadrupol-Orbitrap
Instrument type: GC-EI-FT
Ms type: MS
Ion mode: POSITIVE
Base peak: 165.06972
m/z	relative intensity
51.02298	1
52.57687	1
55.01786	1
55.05434	4
63.02293	3
65.03857	58
66.04641	2
76.03085	2
77.03861	87
78.04642	27
79.05428	54
80.06216	12
81.06991	2
82.0778	1
89.03864	125
90.04662	89
91.05425	226
92.05759	19
93.06994	2
94.04146	1
95.04922	2
97.1013	1
98.03645	1
102.04647	1
103.05448	2
104.06206	29
105.03366	18
105.07006	8
106.04144	4
107.04927	164
108.05706	63
109.06483	8
115.05392	3
115.05425	9
117.07002	3
118.07785	2
119.04927	3
121.02847	4
121.06484	8
124.00745	2
126.04664	1
127.05433	1
128.06227	9
129.06998	6
131.08556	2
133.01353	1
136.00734	22
137.01531	4
139.05444	4
141.01015	5
141.0699	13
142.07703	1
142.07793	2
145.06496	1
150.0468	2
151.05431	4
152.00232	13
152.06216	30
153.01007	19
153.07001	25
154.01758	5
154.0771	7
154.07762	15
155.08542	4
163.05426	4
164.06192	15
165.03105	2
165.06972	999
166.07307	182
167.02533	2
167.08559	23
168.0571	2
168.09335	3
169.0047	29
169.10142	9
170.01263	35
171.02062	10
176.06212	11
177.06999	16
178.0778	315
179.08508	443
180.09329	235
181.06486	30
181.10074	352
182.07263	24
182.10431	48
183.02052	7
183.0802	10
183.11678	3
184.08812	2
184.99977	14
187.0154	17
188.0186	1
189.03134	144
190.03471	11
191.00082	3
193.10124	1
194.07269	5
195.08069	40
196.08844	12
197.0959	48
198.09918	8
207.0914	9
208.09451	2
239.08534	5
240.0934	2
241.0416	3
243.05667	6
245.07225	2
252.09374	2
253.10152	5
254.10889	2
255.11743	5
257.03619	1
259.05191	13
260.05493	1
261.06741	39
262.07089	5
263.04721	5
275.04681	11
277.06256	163
278.06638	24
279.06827	2
281.05154	1
353.0936	9
354.09818	2
367.10922	7
368.11731	79
369.12003	18
370.12286	2
