Mass spectrum: F4; GC-EI-FT; MS; Positive
Name: F4
Name: 1,3,5,7-Tetrakis(3,3,3-trifluoropropyl)-1,3,5,7-tetramethylcyclotetrasiloxane
Class: Non-Natural Product; Siloxane
Formula: C16H28F12O4Si4
Exact mass: 624.08730
SMILES: C[Si]1(O[Si](O[Si](O[Si](O1)(C)CCC(F)(F)F)(C)CCC(F)(F)F)(C)CCC(F)(F)F)CCC(F)(F)F
InChI: InChI=1S/C16H28F12O4Si4/c1-33(9-5-13(17,18)19)29-34(2,10-6-14(20,21)22)31-36(4,12-8-16(26,27)28)32-35(3,30-33)11-7-15(23,24)25/h5-12H2,1-4H3
Instrument: Thermo Scientific Q Exactive GC Hybrid Quadrupol-Orbitrap
Instrument type: GC-EI-FT
Ms type: MS
Ion mode: POSITIVE
Base peak: 137.0228
m/z	relative intensity
55.01788	2
57.01352	6
63.00608	15
73.04682	12
75.02607	80
77.02168	454
79.00095	179
80.99667	594
82.99349	26
89.02174	21
91.00104	4
99.00726	46
109.00285	5
113.00289	29
115.00101	19
122.97281	2
130.95912	7
135.02718	36
137.02281	999
138.02243	102
139.01971	42
140.99779	28
144.97469	4
153.01781	1
156.99466	55
158.99022	683
159.98985	91
162.96515	44
167.01535	8
175.00523	5
177.00085	27
192.98019	14
196.95512	15
200.96638	6
204.94121	3
211.00717	2
214.98195	238
218.95697	156
226.98195	1
236.96762	30
254.99461	42
276.94458	20
288.91962	3
296.95068	10
