Mass spectrum: PCB-123; GC-EI-FT; MS; Positive
Name: PCB-123
Name: 2',3,4,4',5-Pentachlorobiphenyl
Class: Non-Natural Product; PCB
Formula: C12H5Cl5
Exact mass: 323.88339
SMILES: C1=CC(=C(C=C1Cl)Cl)C2=CC(=C(C(=C2)Cl)Cl)Cl
InChI: InChI=1S/C12H5Cl5/c13-7-1-2-8(9(14)5-7)6-3-10(15)12(17)11(16)4-6/h1-5H
Instrument: Trace 1310 GC, Thermo Scientific; Q Exactive Orbitrap, Thermo Scientific
Instrument type: GC-EI-FT
Ms type: MS
Ion mode: POSITIVE
Retention time: 17.48565
Base peak: 325.8801
m/z	relative intensity
52.03077	2
53.00227	2
54.49074	2
55.01785	4
55.05423	9
57.0335	2
58.0733	2
61.00726	7
63.0229	3
63.96144	1
64.96922	3
66.02406	7
67.04169	2
68.0258	1
68.04959	4
68.0621	6
68.99464	1
69.03352	2
69.05742	3
69.06991	5
71.01281	2
71.08561	2
74.01521	26
75.023	22
76.03078	3
77.03857	9
77.98792	2
79.02745	12
79.05421	3
80.04944	3
80.06209	4
80.96904	7
81.0336	34
81.07002	10
81.46813	6
83.07299	2
83.08561	9
83.9995	31
84.47835	5
84.98402	4
85.06475	1
85.10124	4
85.97328	2
86.01524	17
87.02286	26
88.05186	3
90.04647	5
91.05436	3
92.00344	126
92.0622	3
92.50514	13
93.00211	35
93.0387	2
93.50378	5
95.99953	7
96.08086	4
96.09352	3
96.98418	6
97.02855	4
97.52203	3
97.97327	4
98.01519	17
98.03629	3
98.98103	5
99.02296	47
101.0599	1
102.00075	1
102.04661	2
103.05427	6
104.02568	3
106.04186	7
108.08094	3
108.09335	1
108.94215	2
109.05237	4
109.10131	1
110.01522	7
110.07252	2
110.48428	9
111.02287	6
112.01548	3
113.03856	3
114.50264	7
115.00409	6
115.05437	4
117.00113	2
117.06979	5
118.0377	9
118.06522	2
118.07764	2
118.94524	2
118.9912	15
118.99155	8
119.08565	3
120.05338	15
120.94206	3
121.00741	7
122.01523	3
122.07277	3
122.95849	5
122.98118	1
123.0229	58
123.49102	15
124.03092	20
124.08839	2
124.11214	1
126.97234	279
127.05455	1
127.474	36
127.97105	321
128.47249	52
128.96939	114
129.01816	15
129.07008	11
129.47124	13
130.07776	1
130.50963	1
130.99156	4
131.04106	7
131.08565	4
132.04864	19
132.08083	1
132.49078	9
133.01363	4
133.05649	4
133.48964	1
133.99089	9
134.01511	7
134.06421	5
134.10921	2
134.48801	2
135.11671	5
135.98831	2
136.47217	3
137.05974	2
137.13258	3
141.01106	5
141.47011	1
141.99991	1
142.01852	4
142.07764	2
142.90326	3
143.00784	3
143.10655	2
144.04462	4
144.9839	2
145.0074	26
146.05989	2
146.99936	19
147.45247	1
147.9655	2
148.96504	1
149.03873	259
150.04173	50
150.97159	10
151.05392	4
151.14813	2
151.97017	4
152.47378	3
153.06961	3
153.91364	7
155.91072	8
156.03984	5
158.99944	17
159.0807	3
159.11671	2
161.07906	6
161.0961	3
161.94115	35
162.93955	58
163.93803	51
164.43315	2
164.93692	17
165.06978	4
166.01003	3
166.07318	1
167.04918	8
168.02562	3
168.95995	5
169.06493	3
169.95863	3
169.96864	34
170.10913	2
170.95723	8
171.03272	3
171.96578	30
173.13226	3
175.14806	2
175.97765	1
176.98552	2
177.04492	11
180.96101	10
181.96858	3
184.0071	712
184.05135	1
184.99637	3
185.0106	90
185.08081	7
186.00447	233
187.00778	29
190.92156	2
191.00098	6
192.98038	3
193.0502	1
193.96829	27
195.03981	14
195.96553	12
196.02885	2
197.03658	14
198.04457	7
203.92915	9
204.00166	2
207.03214	26
207.9239	2
208.03125	4
211.00536	2
215.9295	4
218.97636	42
219.97977	19
220.97391	30
221.98164	5
222.96559	4
229.00536	1
230.00822	16
231.01689	1
232.0247	2
233.0132	7
234.00331	1
235.01131	4
236.9872	9
237.96333	6
238.98416	4
246.98273	37
248.98003	24
249.02756	2
253.94487	514
254.94898	59
255.94272	464
256.94556	59
257.93973	150
258.94214	18
259.9368	16
264.98242	4
265.98605	13
266.99939	1
267.98312	12
269.98013	8
271.97681	2
273.70865	1
289.92209	12
301.96161	4
303.94116	2
304.94898	2
323.88284	626
324.88614	55
325.88007	999
326.88315	111
327.87668	636
328.88101	74
329.87408	200
330.87787	24
331.87186	30
334.92004	5
335.92383	8
337.92026	5
338.91422	5
339.91754	20
341.91406	19
343.91128	2
