Mass spectrum: Acetyl cedrene; GC-EI-FT; MS; Positive
Name: Acetyl cedrene
Name: 1-[(3R,3aR,7R,8aS)-2,3,4,7,8,8a-Hexahydro-3,6,8,8-tetramethyl-1H-3a,7-methanoazulen-5-yl]ethenone
Class: Non-Natural Product; Sesquiterpene
Formula: C17H26O
Exact mass: 246.19837
SMILES: C[C@@H]1CC[C@@H]2[C@@]13C[C@H](C2(C)C)C(=C(C3)C(=O)C)C
InChI: InChI=1S/C17H26O/c1-10-6-7-15-16(4,5)14-9-17(10,15)8-13(11(14)2)12(3)18/h10,14-15H,6-9H2,1-5H3/t10-,14+,15+,17+/m1/s1
Instrument: Thermo Scientific Q Exactive GC Hybrid Quadrupol-Orbitrap
Instrument type: GC-EI-FT
Ms type: MS
Ion mode: POSITIVE
Base peak: 161.096
m/z	relative intensity
50.01513	2
51.02295	13
51.17467	1
52.01825	3
52.0308	4
53.03864	22
54.03386	5
54.04197	2
54.04643	5
54.67605	1
55.01789	28
55.05427	95
55.1174	1
56.0576	5
56.06208	26
56.15578	1
56.31539	1
56.7323	1
57.02298	1
57.03352	7
57.05733	3
57.06544	2
57.06992	38
57.52685	2
57.88464	1
58.04137	5
58.07327	3
59.04919	2
59.48434	2
60.02063	9
61.02845	18
61.49597	1
61.49641	1
62.01514	5
62.49313	1
63.02296	18
63.88893	1
63.9614	2
64.03078	3
64.1792	1
65.0386	68
65.49242	2
65.7455	1
66.04196	5
66.04646	15
67.05425	179
68.02571	5
68.04955	3
68.05765	10
68.0621	15
68.99469	5
69.03353	13
69.06542	2
69.06991	139
69.52688	2
70.04137	8
70.06519	3
70.07331	8
70.07777	17
70.33426	1
70.36987	1
70.60843	1
71.04919	7
71.07355	1
71.08109	2
71.08558	16
71.13844	1
71.653	1
71.95383	1
72.05701	19
72.08891	1
72.50892	1
73.00732	2
73.02845	27
73.04685	21
73.06037	2
73.0649	3
74.01515	18
74.03628	9
75.01852	2
75.02298	17
75.02612	5
75.94366	1
76.01822	2
76.03079	28
77.00533	2
77.03412	2
77.03857	290
77.88832	1
78.03387	4
78.04198	19
78.04644	194
78.2527	1
78.28735	1
78.54723	1
78.89144	2
79.00103	2
79.04169	7
79.04533	2
79.0498	12
79.05424	315
80.04952	15
80.05762	22
80.06208	61
80.8437	1
80.88858	1
80.99671	2
81.03355	9
81.05737	3
81.06546	5
81.0699	280
82.0362	2
82.03687	2
82.04136	6
82.06516	9
82.07328	27
82.07774	38
82.28465	1
83.04916	19
83.08109	2
83.08556	45
83.91861	1
84.05701	9
84.08894	4
84.09343	12
85.00735	1
85.02845	20
85.06483	64
85.09681	1
85.10123	13
86.01513	4
86.03625	16
86.04384	1
86.06817	4
86.07265	1
86.10455	1
86.11315	1
87.02298	8
87.02486	4
87.04412	31
88.02411	2
88.03078	4
88.05194	18
88.9509	1
89.0205	6
89.0386	44
89.05973	2
89.75687	1
89.81367	1
90.04202	3
90.04647	12
90.53147	1
91.03831	2
91.04173	2
91.05423	745
91.07053	1
91.09978	1
91.14573	1
92.04952	5
92.05763	69
92.0621	75
92.48992	1
93.03359	2
93.05738	9
93.06098	3
93.06552	7
93.06994	220
94.0414	8
94.05264	2
94.05951	1
94.06522	9
94.07329	18
94.07778	22
95.04921	29
95.07299	2
95.08559	120
96.03387	3
96.04444	4
96.05259	3
96.05701	9
96.08082	4
96.08893	12
96.09341	12
97.02847	6
97.0649	15
97.09678	2
97.10126	23
98.01521	2
98.03631	48
98.06014	2
98.07273	6
98.1046	3
98.1091	2
98.2989	1
99.03963	3
99.04414	26
99.08051	21
99.08224	1
100.08832	119
101.03866	2
101.05978	10
101.09172	8
101.20513	1
102.04647	39
102.06758	3
102.54906	1
103.04171	5
103.04983	4
103.05428	141
104.02572	2
104.04955	5
104.05763	12
104.06209	225
104.26162	1
104.40845	1
104.53619	1
105.03358	16
105.0448	36
105.05734	5
105.06106	2
105.06553	17
105.0699	697
106.03689	4
106.04137	15
106.04827	2
106.06519	15
106.0733	63
106.07777	33
107.03661	3
107.0492	37
107.07298	4
107.07668	1
107.08115	3
107.08558	126
107.27164	1
107.6975	1
108.05251	3
108.057	11
108.08083	5
108.08897	12
108.0934	15
108.83475	1
109.06487	52
109.08863	2
109.10126	97
110.06821	5
110.07271	6
110.09649	2
110.10463	9
110.10911	6
111.04412	8
111.05528	1
111.07605	2
111.0805	13
111.1169	11
112.05199	3
112.08389	2
112.08822	2
113.0386	4
113.05976	6
113.53458	1
114.04654	4
114.06762	28
114.2484	1
114.24953	1
114.73125	1
115.0031	2
115.03905	16
115.05426	298
115.0709	1
115.07542	8
115.66241	1
116.04954	9
116.05764	33
116.06213	58
117.05736	11
117.06097	2
117.06546	5
117.06989	360
117.09103	2
118.0414	7
118.05259	3
118.06519	6
118.07327	35
118.07774	94
118.99146	1
119.03666	2
119.04921	171
119.06049	11
119.06171	2
119.07301	4
119.07668	2
119.08126	8
119.08554	703
119.5676	1
120.05257	15
120.05704	8
120.08083	11
120.08895	61
120.09342	31
120.65926	1
120.97002	1
121.0285	3
121.06484	159
121.08862	2
121.09229	3
121.10122	209
121.44419	2
122.01514	2
122.03626	4
122.06821	15
122.07268	22
122.09649	4
122.10458	22
122.10905	23
123.04411	12
123.08049	80
123.11237	3
123.11686	189
123.9705	1
124.05196	3
124.08388	6
124.08834	17
124.11212	2
124.12027	17
124.12473	37
125.02345	2
125.05978	5
125.09171	2
125.09618	5
125.12804	4
125.13246	2
126.02669	2
126.03123	8
126.04647	12
126.0676	23
127.03901	6
127.04172	2
127.05427	15
127.07098	2
127.07541	5
128.04948	3
128.06209	202
128.08325	9
129.03667	2
129.04475	5
129.05452	2
129.05733	5
129.06548	23
129.06989	260
129.09105	3
130.05266	1
130.06526	16
130.0733	26
130.07777	77
130.99152	3
131.04921	17
131.06046	3
131.07298	6
131.07657	1
131.08115	11
131.08557	304
132.05707	8
132.06824	3
132.08083	8
132.08896	30
132.09343	30
133.01363	9
133.05228	2
133.06487	78
133.07611	4
133.09222	2
133.09669	3
133.10121	231
134.03627	8
134.06004	3
134.06818	7
134.07265	8
134.09647	3
134.1046	25
134.10905	25
135.04408	9
135.06792	2
135.08047	185
135.10426	2
135.1124	2
135.11687	80
136.04752	1
136.05193	5
136.08388	16
136.08833	24
136.11209	2
136.1203	11
136.12471	34
137.03865	2
137.05978	2
137.09015	2
137.09161	2
137.09616	30
137.1281	4
137.13257	9
138.09947	3
138.1039	6
138.12776	1
139.03899	5
139.05429	10
139.07541	4
139.1118	1
139.44609	1
140.04955	6
140.05759	2
140.10272	2
141.06992	90
141.09108	3
142.06248	4
142.06519	6
142.07333	12
142.07776	68
142.09883	2
143.04916	2
143.06036	2
143.07033	11
143.07294	8
143.08121	8
143.08557	144
144.05701	5
144.06825	2
144.08078	10
144.08893	14
144.0934	31
144.99921	1
145.06485	47
145.07607	3
145.08864	5
145.10121	181
145.96851	2
146.06017	2
146.06824	7
146.07266	64
146.09647	3
146.10455	20
146.10902	92
147.04413	2
147.06558	8
147.08043	314
147.09171	4
147.10435	1
147.11243	15
147.11682	259
147.96552	2
148.05188	3
148.08383	34
148.08829	11
148.11208	3
148.11574	2
148.12019	26
148.12466	205
148.76791	1
149.02362	2
149.04486	3
149.05975	4
149.09615	23
149.12357	3
149.12808	21
149.13254	40
149.2225	2
150.04645	6
150.06758	2
150.09952	3
150.1039	11
150.13586	8
150.14027	2
151.02417	4
151.03903	2
151.05423	5
151.07547	3
151.11177	5
152.0621	31
152.08334	3
152.14349	1
153.05463	2
153.05728	2
153.06549	4
153.06989	32
153.09103	4
153.12733	1
153.19415	1
153.39537	1
154.06248	10
154.06512	9
154.07329	5
154.07776	15
154.09895	2
155.06039	45
155.07021	8
155.07297	3
155.08121	2
155.08553	34
156.06369	6
156.08081	6
156.0889	2
156.09338	28
157.06479	10
157.07602	3
157.08597	1
157.08861	6
157.09668	4
157.10123	81
158.03122	1
158.07266	12
158.09644	5
158.10454	11
158.10898	19
158.27657	1
159.07596	2
159.08047	34
159.09174	1
159.10423	2
159.11684	143
159.55421	1
160.07578	2
160.08388	4
160.08824	14
160.12018	18
160.12462	9
161.05978	4
161.09601	999
161.13249	63
162.04646	1
162.06746	5
162.09946	120
162.10385	33
162.13586	7
162.14029	5
163.05418	3
163.07538	4
163.088	1
163.10065	1
163.10284	5
163.10732	4
163.11174	44
163.14816	7
164.04953	2
164.05759	2
164.06203	3
164.11514	5
164.1196	9
164.15143	2
164.15598	8
165.06992	31
165.12743	4
166.06519	5
166.07327	6
166.0777	10
167.073	5
167.08553	16
168.0681	2
168.07823	1
168.0808	4
168.08885	3
168.09341	8
169.06496	3
169.07596	2
169.08864	3
169.09677	2
169.10117	13
170.07269	6
170.09644	5
170.10904	12
171.08044	9
171.09985	2
171.1042	3
171.11223	2
171.11681	46
172.08829	2
172.12019	8
172.12466	9
173.05977	2
173.09613	17
173.12801	1
173.13249	48
174.0676	4
174.09938	2
174.10391	4
174.13583	7
174.1403	12
175.0755	2
175.11176	108
175.14366	2
175.14816	28
176.06207	3
176.08319	2
176.11516	13
176.11954	7
176.15143	4
176.98543	2
177.06979	2
177.1274	45
177.16374	3
178.07767	13
178.13071	5
178.17159	2
178.96466	2
179.03397	2
179.06029	3
179.07297	2
179.0811	3
179.08551	12
180.04147	1
180.07812	4
180.08076	4
180.09337	5
181.06458	2
181.07605	2
181.08588	2
181.08856	1
181.1011	8
182.08372	1
182.0965	6
182.10904	3
183.03587	4
183.08046	4
183.10417	2
183.11685	7
184.08827	10
184.11208	3
184.12466	4
185.02666	1
185.0961	19
185.13249	46
186.09952	3
186.10382	2
186.13582	5
186.14027	11
187.11177	4
187.14372	2
187.14813	40
188.06203	2
188.10464	1
188.10718	2
188.11932	2
188.15155	6
188.15598	7
189.06984	8
189.09149	1
189.12738	28
189.16377	5
190.06537	2
190.07768	3
190.09894	1
190.13075	5
190.13516	4
191.00114	9
191.07283	2
191.08556	8
191.10669	4
191.14299	7
192.00081	1
192.09332	5
192.11447	5
192.98041	5
193.04996	11
193.08858	2
193.10118	7
193.97958	1
194.09387	2
194.09644	3
194.10899	2
194.77242	1
195.08063	3
195.11681	2
196.11208	2
196.12463	6
197.05971	1
197.13237	3
198.14032	2
199.03075	2
199.1481	17
199.97974	1
200.06198	2
200.15166	2
200.15553	2
201.12733	2
201.16376	10
201.68628	1
202.07765	9
202.13516	2
202.16719	1
203.08554	3
203.14307	131
203.17944	40
204.08084	2
204.09344	3
204.1145	4
204.14645	19
204.15091	3
204.18282	6
205.10112	2
206.10896	3
207.10202	9
207.11679	3
208.07298	7
209.08105	2
210.12784	2
210.14023	3
211.0607	2
211.13577	1
211.14838	2
212.0833	9
213.09102	11
213.1638	86
214.09431	2
214.16716	14
215.08553	4
215.14336	1
215.17953	2
216.09352	2
217.10123	3
217.15883	2
218.10931	2
219.13762	2
221.0845	6
221.10753	1
225.04295	11
225.07591	2
226.04262	2
226.07779	2
228.18735	23
229.10124	2
229.15865	4
229.19077	5
229.19514	40
230.1985	7
231.17436	418
231.21078	4
232.17776	73
233.18114	4
236.95219	2
244.21861	1
245.12868	1
245.19048	2
246.19795	121
247.20131	18
248.20486	2
248.98898	2
255.10437	1
255.12291	2
257.22641	3
258.12512	3
258.22989	1
265.02005	3
266.99927	4
269.1384	2
272.25006	10
273.25351	3
277.07785	7
277.6163	1
278.08084	1
281.05124	9
282.05066	2
283.03033	1
283.04861	1
299.0614	2
299.45047	1
327.03549	2
341.91702	1
352.95346	1
391.69312	1
