Mass spectrum: 2-(4-Fluorophenyl)-5-[(5-iodo-2-methylphenyl)methyl]thiophene; GC-EI-FT; MS; Positive
Name: 2-(4-Fluorophenyl)-5-[(5-iodo-2-methylphenyl)methyl]thiophene
Name: Thiophene, 2-(4-fluorophenyl)-5-[(5-iodo-2-methylphenyl)methyl]-
Class: Non-Natural Product
Formula: C18H14FIS
Exact mass: 407.98450
SMILES: CC1=C(C=C(C=C1)I)CC2=CC=C(S2)C3=CC=C(C=C3)F
InChI: InChI=1S/C18H14FIS/c1-12-2-7-16(20)10-14(12)11-17-8-9-18(21-17)13-3-5-15(19)6-4-13/h2-10H,11H2,1H3
Instrument: Trace 1310 GC, Thermo Scientific; Q Exactive Orbitrap, Thermo Scientific
Instrument type: GC-EI-FT
Ms type: MS
Ion mode: POSITIVE
Retention time: 12.32
Base peak: 229.9587
m/z	relative intensity
57.48838	14
63.02299	8
68.97941	7
70.99508	7
75.02301	13
83.02921	11
91.05431	5
95.0292	5
96.00423	3
99.023	4
102.04648	35
103.05428	107
104.06211	42
105.04482	6
107.02923	18
109.04491	35
112.03082	2
115.05432	42
116.53786	12
118.99802	1
120.03709	17
121.04491	10
123.54345	6
125.0387	6
126.90402	49
130.03258	9
132.03709	10
133.04489	146
134.04825	20
139.0013	161
140.53954	22
142.07781	7
146.0527	59
147.06052	29
153.06996	6
155.06041	30
157.04486	30
165.01691	10
168.03709	2
170.05267	8
176.00908	7
178.0247	183
179.02806	18
181.04478	4
184.03415	25
189.01689	55
191.03249	353
192.03587	43
199.05411	2
213.06993	6
220.06836	40
221.07611	8
224.0622	3
226.07777	16
229.95869	999
230.96214	85
233.0762	84
239.03259	10
243.06047	1
246.08404	34
252.04048	5
253.95883	32
265.0484	68
266.05618	34
278.05606	7
406.97647	6
407.98401	185
