Mass spectrum: PBDE-99; GC-EI-FT; MS; Positive; CE: 35
Name: PBDE-99
Name: 2,2,4,4,5-Pentabromodiphenyl ether
Class: Non-Natural Product; Brominated Flame Retardant
Formula: C12H5Br5O
Exact mass: 559.6257
SMILES: C1=CC(=C(C=C1Br)Br)OC2=CC(=C(C=C2Br)Br)Br
InChI: InChI=1S/C12H5Br5O/c13-6-1-2-11(9(16)3-6)18-12-5-8(15)7(14)4-10(12)17/h1-5H
Instrument: Trace 1310 GC, Thermo Scientific; Q Exactive Orbitrap, Thermo Scientific
Instrument type: GC-EI-FT
Ms type: MS
Ion mode: POSITIVE
Collision energy: 35
Retention time: 27.56035
Base peak: 403.7856
m/z	relative intensity
101.05975	2
102.96661	7
103.05441	11
104.06228	1
106.06514	7
106.07766	8
107.03673	3
107.4743	3
107.97841	26
107.99944	10
108.09348	2
108.97742	24
109.00733	35
109.06504	3
109.4813	12
110.01536	69
111.02304	58
111.04408	4
111.11696	3
112.03091	13
113.03872	6
114.00075	5
114.49586	5
115.03902	2
115.0542	8
116.93348	23
117.02985	3
117.06995	15
117.92368	11
118.03755	4
118.0734	2
118.07777	6
118.93145	26
118.99802	6
119.04542	11
119.08582	1
120.05311	6
120.08099	4
120.09335	6
121.1012	3
121.94164	3
121.97562	26
122.10915	5
122.97478	28
123.04396	1
125.05977	2
126.04654	3
126.06748	5
127.05428	2
127.92581	15
128.08321	2
128.99477	1
129.92368	16
130.91286	4
131.03432	4
131.04913	4
131.99965	16
132.09366	5
133.01386	39
133.0649	7
134.01529	12
134.10883	8
135.02301	12
135.04405	2
135.06259	1
135.08029	3
136.03062	52
136.12482	2
137.03886	646
138.04222	146
139.0544	29
139.92577	13
140.93364	174
141.9239	13
141.94115	31
142.93147	182
142.94937	10
143.03654	16
143.07053	3
143.08568	14
143.9391	31
144.04442	4
144.0936	4
144.94257	14
145.05209	8
145.06479	1
145.95032	4
146.05978	4
146.10471	6
147.04422	1
147.06531	14
147.08063	12
147.43729	55
148.07547	54
148.43634	104
148.938	13
149.08345	18
149.13275	7
149.43533	50
149.93704	7
150.09122	4
151.92578	23
152.08324	4
152.9333	115
153.45331	4
153.92363	25
153.94106	86
153.95496	3
154.0625	7
154.93144	112
154.95357	10
154.98116	4
155.05933	1
155.06035	7
155.93924	89
156.08098	2
157.06506	3
158.09656	2
158.95352	12
159.0805	2
159.83426	3
159.96123	9
160.95152	5
161.93864	18
162.93756	41
162.96997	5
162.99674	4
163.05423	1
163.93663	13
164.93372	7
164.98546	6
165.0338	12
166.0414	19
167.08533	2
168.95801	9
169.93632	46
170.07257	2
170.09633	2
170.10893	6
170.84421	11
171.08052	3
171.93405	45
172.84204	26
173.84522	1
174.06747	4
174.83968	15
175.97746	3
176.06206	2
176.4369	4
176.98526	12
177.95392	2
177.98466	3
178.07773	8
179.08562	4
183.11656	4
184.08792	3
184.12489	3
185.09612	3
186.14055	2
188.93366	2
190.09862	3
190.94898	13
191.00136	10
191.08562	6
191.10626	2
191.97269	2
192.00052	7
192.98022	1
193.01691	3
194.84386	24
194.97751	2
195.08057	1
196.84203	49
198.83957	25
199.03082	1
199.85152	2
199.97981	3
200.89432	73
201.16351	5
201.84958	2
201.89285	209
201.97762	3
202.39478	20
202.89191	221
203.08597	3
203.39388	23
203.89058	64
204.11427	2
204.39314	5
205.01718	2
205.10149	2
207.10217	13
207.41138	5
207.91324	9
208.07272	4
208.91197	20
209.40961	1
210.99133	5
211.0603	1
213.06987	4
213.09074	3
214.94926	50
215.08548	1
215.9574	109
216.9471	44
216.96503	67
217.10142	4
217.95467	100
218.8441	3
218.96324	63
219.85184	14
219.96648	7
220.8419	7
220.85944	100
221.85008	26
222.85733	194
222.93684	2
223.84805	13
224.85527	86
225.85844	4
225.87659	5
226.99388	8
228.00124	6
229.8725	8
229.99971	10
230.19833	1
231.21106	2
231.85208	39
232.84233	8
233.84952	78
235.8476	35
237.87152	3
239.86975	1
243.95168	132
244.95584	11
245.94954	117
245.9682	15
246.95248	11
247.84634	11
247.96574	14
248.85458	13
248.9884	8
249.8445	25
250.8523	23
250.96852	2
251.84245	11
252.85039	9
253.86655	3
255.12268	1
255.99202	6
256.98743	2
257.98953	6
258.00757	6
260.86584	13
262.86365	26
264.86157	15
265.01999	2
266.88577	2
268.88345	2
268.97824	1
270.8584	7
273.2583	2
282.05084	3
283.04825	8
294.87518	183
295.86563	12
295.8793	19
296.87323	360
297.87607	40
298.7695	34
298.87085	190
299.87442	21
300.76819	92
302.76575	98
303.7706	3
304.7648	33
304.90897	2
305.78494	4
305.91287	5
307.90976	15
308.90396	3
309.90857	5
310.9714	2
321.86209	8
322.87	35
323.86096	15
323.87814	109
324.86893	71
324.87207	22
324.9866	1
325.87531	223
326.86676	37
326.87961	29
327.87354	105
328.87784	9
335.90082	2
335.91882	25
337.91687	31
339.91428	20
340.77365	10
341.01849	8
342.77264	14
343.01386	4
344.97662	3
350.87668	18
352.87433	34
354.8717	18
355.07062	5
359.0285	2
362.91714	3
374.78467	15
376.78244	11
401.78778	348
402.79236	41
403.78564	999
404.789	125
405.78519	974
406.78744	116
407.78201	316
408.78537	38
412.82529	7
413.82822	2
414.82404	11
415.03668	2
416.82138	12
417.03415	4
418.82013	4
419.82248	13
467.74347	2
475.14331	2
481.6972	14
481.71423	17
483.69495	19
483.7121	64
484.7157	8
485.71057	96
486.715	12
487.70746	66
488.71219	8
489.7052	15
493.73721	4
493.75488	2
494.74857	5
495.73636	4
495.75412	13
497.75076	6
499.75079	18
501.74689	4
559.62732	59
560.63037	8
561.62543	311
562.62689	35
563.62378	609
564.62677	69
565.61835	591
566.62341	71
567.61975	301
568.62244	38
569.61688	60
574.6593	9
576.65735	7
