Mass spectrum: PBDE 3; GC-EI-FT; MS; Positive; CE: 35
Name: PBDE 3
Name: 1-Bromo-4-phenoxybenzene
Class: Non-Natural Product; Brominated Flame Retardant
Formula: C12H9BrO
Exact mass: 247.9837
SMILES: C1=CC=C(C=C1)OC2=CC=C(C=C2)Br
InChI: InChI=1S/C12H9BrO/c13-10-6-8-12(9-7-10)14-11-4-2-1-3-5-11/h1-9H
Instrument: Trace 1310 GC, Thermo Scientific; Q Exactive Orbitrap, Thermo AC$INSTRUMENT_TYPE: GC-EI-FT
Instrument type: GC-EI-FT
Ms type: MS
Ion mode: POSITIVE
Collision energy: 35 eV
Retention time: 10.1
Base peak: 141.0698
m/z	relative intensity
102.04646	5
103.05442	3
104.06228	4
106.06523	1
107.04922	1
107.0855	1
109.00758	1
110.01502	2
111.0231	2
111.11701	1
113.03871	22
114.04649	19
114.06775	1
115.05418	489
116.05753	45
116.93341	19
117.05741	4
117.06995	10
118.07777	2
118.93149	18
118.99795	1
123.11694	1
126.04659	6
127.05434	3
128.0622	7
128.93344	4
129.06993	5
130.9314	5
131.04921	1
133.01346	3
134.99268	1
135.08066	2
137.03885	4
138.04657	8
139.0544	243
140.05775	29
140.0622	64
141.06978	999
142.0719	7
142.07327	113
142.94936	107
143.07605	7
143.08568	3
143.95256	5
144.0806	3
144.94724	105
145.9503	5
146.93857	2
147.06567	1
150.04665	1
151.05421	5
152.06206	1
154.94902	12
155.06045	1
155.08578	3
156.94685	11
162.96996	2
164.9856	1
165.06964	24
167.07303	2
167.08542	26
168.05699	169
168.09322	2
168.98814	2
169.06467	203
170.06782	33
170.1089	2
170.9437	17
171.08052	2
171.95154	59
172.1247	1
172.94208	17
172.95488	1
173.94981	52
174.95329	3
176.9852	2
179.06067	4
179.08557	2
181.08562	1
181.10133	26
182.95518	22
184.95299	25
189.06958	1
190.07748	1
191.00136	6
191.10693	1
192.96507	3
192.98027	5
192.99817	1
193.05005	2
197.13222	1
203.08518	2
207.10232	4
218.98074	10
219.98839	106
220.97847	11
220.99159	12
221.08412	2
221.98595	103
222.98958	13
246.97534	14
247.9835	867
248.98415	26
248.98625	96
249.98131	817
250.98451	102
251.9875	7
265.0199	2
281.05151	7
401.05341	1
415.10666	1
