Mass spectrum: PCB-209; GC-EI-FT; MS; Positive
Name: PCB-209
Name: Decachlorobiphenyl
Class: Non-Natural Product; PCB
Formula: C12Cl10
Exact mass: 493.68853
SMILES: C1(=C(C(=C(C(=C1Cl)Cl)Cl)Cl)Cl)C2=C(C(=C(C(=C2Cl)Cl)Cl)Cl)Cl
InChI: InChI=1S/C12Cl10/c13-3-1(4(14)8(18)11(21)7(3)17)2-5(15)9(19)12(22)10(20)6(2)16
Instrument: Trace 1310 GC, Thermo Scientific; Q Exactive Orbitrap, Thermo Scientific
Instrument type: GC-EI-FT
Ms type: MS
Ion mode: POSITIVE
Base peak: 207.0322
m/z	relative intensity
51.02298	21
52.01828	6
53.00227	6
54.01006	3
54.03381	29
54.04639	11
55.01786	25
55.04174	10
55.05423	83
55.2964	31
55.5183	31
56.04944	17
56.06209	141
57.03361	18
57.06541	20
57.0699	126
62.0152	23
63.96135	24
65.99946	19
66.04642	2
68.02566	16
68.0496	16
68.06212	22
68.99464	9
69.02094	16
69.03356	12
69.05743	3
70.07779	9
70.96835	30
71.99948	38
73.02852	12
73.97832	46
74.03626	10
75.04375	4
76.03083	8
77.03857	43
78.04656	19
79.04987	11
79.05422	43
80.02577	14
80.06211	41
81.04476	17
82.04144	17
82.06511	20
82.96846	44
83.03663	3
83.04925	8
83.9995	263
84.02059	13
84.09337	13
85.00732	5
85.0648	10
87.0229	34
88.96849	60
89.03854	18
89.96698	36
92.03708	33
92.05772	18
92.06221	25
93.03342	5
93.05749	3
93.07004	27
93.48364	54
94.07781	20
94.48214	27
94.96828	118
95.01273	11
95.06047	12
95.08562	37
96.02078	6
96.99394	51
97.02847	18
97.08855	6
97.10141	26
98.03629	23
98.07281	22
99.04426	5
99.06777	3
100.00578	45
100.05195	10
100.96838	65
101.98218	8
103.04165	3
103.05429	13
103.48718	111
104.02605	64
104.06215	14
104.98232	18
105.06989	61
105.93732	22
106.06526	16
106.0779	20
106.48689	16
106.96829	531
107.04911	10
107.46996	66
107.48553	34
107.96679	295
107.99962	160
108.0934	2
108.46856	45
108.94733	36
108.96527	65
109.00288	59
110.03632	6
110.04742	4
110.06013	9
110.50579	22
111.05522	9
111.08064	1
111.11681	15
112.06322	11
112.08838	1
112.48684	19
112.9886	127
113.03859	7
113.48531	52
113.98721	238
114.9855	32
115.07557	1
116.0265	12
116.05773	14
117.0297	170
117.06981	10
117.93728	87
118.06517	19
118.07766	39
118.90314	27
118.96857	156
119.2686	11
119.93437	100
119.99969	290
120.96527	62
121.00277	31
121.01348	16
121.02849	5
121.06498	6
121.07602	3
121.1014	23
121.95055	8
122.07278	22
122.95631	11
123.0079	3
123.11673	11
123.94754	16
124.00573	7
124.05206	7
124.11215	6
124.12476	12
124.45277	72
124.95458	27
124.99807	20
125.05998	9
125.45121	136
125.95305	8
125.99172	32
126.03126	3
126.44985	89
127.05422	8
127.07531	4
128.04958	14
129.07014	27
129.93741	108
129.97119	33
130.0332	8
130.06505	27
130.07777	31
130.96823	37
130.99159	11
131.03453	9
131.07318	18
131.93431	75
131.99942	479
132.03238	37
132.08086	20
132.0936	24
132.92314	7
132.9655	49
133.01283	70
133.01366	95
133.05237	13
133.06522	6
133.07625	6
133.10135	29
134.0134	28
134.03632	10
134.06006	3
134.07277	15
134.95422	48
135.01059	10
135.11671	6
136.05217	6
136.12465	3
136.95126	23
137.04167	17
137.07095	4
137.13252	12
138.06767	5
138.12778	13
139.05417	7
140.90605	110
141.06998	5
141.93727	212
142.43912	24
142.5811	32
142.90314	134
142.93581	82
142.96838	65
143.08546	7
143.10657	7
143.43744	28
143.9343	462
143.97183	33
143.99963	770
144.90018	48
144.93294	44
144.96567	24
145.00273	222
145.06503	13
145.93115	25
145.96854	10
146.07283	14
147.06548	18
147.08031	5
147.11671	8
147.26047	9
147.45584	35
147.92592	16
147.93813	18
147.95728	86
148.12454	16
148.45406	58
148.95599	186
149.46002	37
149.95453	139
150.95287	37
151.08682	12
151.11174	4
151.95166	26
152.06227	9
152.11969	12
152.90611	56
153.93729	97
153.99561	31
154.06543	9
154.90323	41
154.96843	73
155.03628	76
155.06061	10
155.93428	43
156.08121	22
156.09325	16
156.91969	8
157.06485	6
157.10129	7
158.07277	2
158.10904	5
158.96663	19
159.08067	6
159.42156	263
159.92561	27
160.42009	300
160.92452	53
160.95418	113
161.05991	2
161.09602	13
161.41866	169
161.92009	14
162.41717	66
162.96953	38
163.05447	8
163.14836	10
163.41602	16
163.96957	3
164.06203	7
164.90608	21
164.94926	12
164.9857	9
165.00215	1
165.44153	69
165.90448	24
165.93704	217
165.98479	10
166.07779	24
166.44016	136
166.90329	64
166.92818	57
166.96857	88
167.07295	20
167.0856	14
167.43854	129
167.93454	54
168.0806	16
168.09348	12
168.43729	35
168.90048	14
168.9653	40
169.03487	37
169.06494	3
169.92296	76
171.08015	8
171.11671	8
173.13229	33
175.14816	18
175.96132	65
176.90594	561
176.9855	35
177.16383	9
177.40772	56
177.9046	547
177.93701	116
178.00534	5
178.9034	464
178.98178	13
179.08543	15
179.40462	80
179.90155	67
179.93398	41
179.96442	24
179.97607	28
180.0007	10
180.90022	84
180.94405	9
180.96561	50
182.10901	16
182.42465	44
182.92625	39
183.42311	5
184.92346	104
185.13219	5
185.15382	13
185.92152	13
186.92009	55
186.96728	114
187.87489	27
187.90875	9
188.96436	23
188.98543	10
189.06982	9
189.16391	14
189.93701	91
191.14334	6
191.88797	22
191.93434	81
192.93007	20
193.0171	19
193.10133	3
193.88498	4
194.01617	6
194.39018	46
194.97697	26
195.11659	7
195.38911	17
195.89296	85
196.38719	160
196.9928	4
197.38579	86
199.03101	12
199.97089	21
200.41093	57
201.93718	40
201.96771	75
202.40735	73
202.91153	27
203.00076	10
203.18021	5
203.40669	13
203.91038	34
203.93382	31
205.10089	5
207.03215	610
207.05374	10
207.10153	13
208.03177	89
208.07284	7
208.93245	26
211.00858	7
211.02675	3
211.14856	7
211.87498	153
211.99004	1
212.87324	999
212.90657	12
213.16356	2
213.37511	146
213.87186	964
213.93735	268
214.37358	58
214.87071	228
214.90373	27
214.94093	38
215.37201	100
215.86893	26
215.93451	99
216.37125	4
216.93774	28
217.89517	160
217.93147	52
218.89377	28
219.39087	129
220.38933	67
221.08466	6
221.133	11
221.88942	76
222.88791	11
225.04289	880
227.97476	6
230.35791	38
231.35658	29
235.87509	28
237.37636	14
237.87176	57
239.00499	1
240.04352	15
243.90181	16
246.84334	74
247.84219	48
248.34459	16
248.84103	121
248.90608	83
248.98874	34
249.34318	34
249.83939	274
249.98787	7
250.34145	21
250.8373	123
250.9034	82
250.96866	5
251.83617	33
252.86455	27
252.90016	21
253.86246	64
254.86056	9
255.85908	102
256.85812	99
257.2265	13
257.85648	9
259.87497	38
261.87174	54
267.01697	9
269.90884	30
270.84418	27
271.90585	39
272.8407	37
274.83859	33
278.87067	22
280.86832	35
281.05151	61
283.03101	6
283.04822	29
283.87451	233
284.87717	65
285.00989	6
285.8718	447
286.87521	80
287.86932	269
288.87317	40
289.86649	20
293.87119	28
295.91482	28
296.84177	13
296.90927	29
297.91238	16
298.90558	21
300.06131	6
301.90671	29
303.71237	7
305.8125	35
306.84406	23
307.80981	18
308.84131	35
309.8063	42
310.83756	26
315.83667	37
317.83438	48
318.84329	7
320.84036	69
321.84906	77
322.83749	42
323.84528	7
324.83432	51
326.96567	6
331.81015	37
332.8815	77
334.87881	11
353.81198	412
354.81574	66
355.07071	15
355.80984	592
356.8129	143
357.80658	322
358.80939	49
359.80368	324
361.80139	81
364.85028	2
365.85297	137
366.84659	41
367.84973	160
368.84454	64
369.84747	130
370.84006	21
371.84418	25
373.84192	36
383.84524	6
388.78207	10
390.7793	57
391.78626	45
392.77628	43
393.78101	43
394.77237	25
395.77853	14
403.82675	30
405.82449	20
406.81351	14
423.75024	178
425.74731	304
426.74963	63
427.7435	483
428.74698	43
429.74213	164
430.74554	38
431.73831	119
433.73575	35
436.78415	49
437.78781	17
439.78564	128
440.77725	9
443.77802	23
445.77597	27
460.7168	21
463.71902	39
464.70941	19
465.71915	32
467.71591	16
473.76459	23
475.76047	37
476.75058	17
493.68683	157
495.68561	103
496.68802	76
497.68176	463
498.6842	46
499.67813	448
