Mass spectrum: pentabromotoluene; GC-EI-FT; MS; Positive
Name: pentabromotoluene
Name: 1,2,3,4,5-pentabromo-6-methylbenzene
Class: Non-Natural Product; Brominated flame retardant
Formula: C7H3Br5
Exact mass: 481.61516
SMILES: CC1=C(C(=C(C(=C1Br)Br)Br)Br)Br
InChI: InChI=1S/C7H3Br5/c1-2-3(8)5(10)7(12)6(11)4(2)9/h1H3
Instrument: Thermo Scientific Q Exactive GC Hybrid Quadrupol-Orbitrap
Instrument type: GC-EI-FT
Ms type: MS
Ion mode: POSITIVE
Base peak: 87.02297
m/z	relative intensity
51.02299	4
53.03863	1
54.0465	2
55.01797	1
55.05434	14
57.06991	6
61.00727	92
61.02838	2
62.0152	47
63.02296	17
63.92866	2
65.03855	2
68.0621	2
70.07779	3
71.04914	2
73.04677	1
74.01511	13
75.02304	3
77.0386	11
78.91789	31
79.05427	2
79.92564	20
80.06216	2
80.91573	33
81.92355	18
81.96255	34
82.46649	32
82.96162	43
83.08568	8
83.46559	32
83.96944	12
83.99954	21
85.00743	293
85.10131	7
86.0151	670
86.03628	1
87.02297	999
88.02627	92
89.03864	2
90.01017	7
91.05426	3
92.06208	3
92.9337	5
94.93142	4
95.08572	10
97.9724	4
98.07266	1
100.00568	4
105.07005	4
107.0493	2
109.10117	1
110.03648	1
110.10907	1
111.04412	3
114.06777	5
114.2262	2
114.91786	14
115.05424	12
115.92578	40
116.06226	3
116.91582	13
116.93348	182
117.07	5
117.92373	48
118.93153	191
119.08555	2
121.10128	2
121.42163	5
121.9258	47
122.42956	40
122.9247	88
123.42874	66
123.92375	47
124.42757	27
126.91811	5
127.92578	19
128.06224	5
128.93353	8
129.06993	7
129.92372	18
130.93143	13
131.08551	3
131.93947	2
133.10126	2
135.06268	2
138.14027	1
138.91774	67
139.92581	524
140.08322	2
140.91573	82
140.93327	186
141.92351	502
142.07744	3
142.93158	124
144.09316	2
145.0649	3
146.10895	5
147.11705	3
149.13248	3
150.91788	56
151.92534	23
152.91562	53
153.92378	19
154.07704	1
154.07756	2
157.1011	9
161.13255	2
161.38498	58
161.88915	31
162.38371	175
162.88818	81
162.91757	5
163.38281	184
163.88684	75
163.92551	125
164.38161	69
164.8856	24
164.93092	10
164.9332	627
165.92383	169
165.94099	667
166.93147	670
166.9489	98
167.939	623
168.94692	78
170.84432	5
171.08066	2
172.84222	13
174.83986	6
176.98543	1
179.08568	3
183.83437	4
189.33861	6
190.33809	8
191.00076	2
193.05014	3
193.83636	8
194.84399	29
195.83434	13
196.84209	63
197.83231	8
198.83962	30
199.14778	3
201.34753	57
202.34717	243
202.84865	17
203.34572	367
203.84781	21
204.34462	216
204.84633	17
205.34378	57
205.83594	22
207.83372	42
209.8317	14
213.1635	4
217.8367	16
218.84419	14
219.11726	3
219.83441	27
220.8421	32
221.83171	14
222.8398	15
229.8361	50
231.83415	85
232.83675	5
233.83237	41
242.80566	7
242.84421	30
243.8037	10
243.85185	48
244.80276	5
244.84196	72
244.85927	496
245.85042	115
246.85574	220
246.85783	940
247.86024	119
248.85573	459
248.98961	2
249.85774	29
255.12283	1
272.75488	1
274.75305	9
276.75095	8
281.05142	1
310.75244	2
322.77051	104
323.77527	25
323.77841	102
324.76849	312
324.77164	47
325.77621	303
326.76602	300
326.7692	77
327.77353	285
328.76456	106
328.76773	38
329.77158	89
330.77802	9
380.67694	4
401.68838	16
402.69736	88
403.68597	61
404.69324	311
405.68466	103
405.68686	65
406.69296	485
407.68298	73
407.69846	65
408.68994	313
409.69391	22
409.69611	34
410.68811	72
411.69504	8
481.61536	70
482.61801	2
483.61255	334
484.61652	24
485.61075	647
486.61511	46
487.60974	650
488.61169	41
489.60666	299
490.61148	21
491.60406	60
