Mass spectrum: PBDE-100; GC-EI-FT; MS; Positive; CE: 35
Name: PBDE-100
Name: 2,2,4,4,6-Pentabromodiphenyl ether
Class: Non-Natural Product; Brominated Flame Retardant
Formula: C12H5Br5O
Exact mass: 559.6257
SMILES: C1=CC(=C(C=C1Br)Br)OC2=C(C=C(C=C2Br)Br)Br
InChI: InChI=1S/C12H5Br5O/c13-6-1-2-11(8(15)3-6)18-12-9(16)4-7(14)5-10(12)17/h1-5H
Instrument: Trace 1310 GC, Thermo Scientific; Q Exactive Orbitrap, Thermo Scientific
Instrument type: GC-EI-FT
Ms type: MS
Ion mode: POSITIVE
Collision energy: 35 eV
Retention time: 26.62127
Base peak: 563.6237
m/z	relative intensity
101.03876	4
101.05975	3
102.96684	5
103.05438	6
104.02582	1
104.05771	4
104.06226	14
104.98248	2
105.06998	11
107.97832	26
108.97733	22
109.00728	25
109.06511	3
109.1014	6
109.48129	11
110.01534	86
110.10458	3
111.023	19
111.11695	3
112.0309	17
114.06773	5
115.0545	26
115.07532	1
115.9258	14
116.05782	6
116.06219	10
116.93337	30
117.05736	2
117.06993	14
117.92368	15
118.07774	10
118.93147	30
119.03142	2
119.0492	2
120.05698	2
120.09336	4
121.06479	2
121.97562	33
122.07258	2
122.10911	4
122.9748	33
123.0443	2
123.11688	5
124.12492	3
125.03875	4
125.05976	2
126.03139	2
126.04653	3
126.06782	2
127.05428	4
127.92579	19
128.04974	2
128.06216	5
129.09112	3
129.92358	10
130.91284	4
130.99165	2
131.04919	4
131.08102	3
131.08583	9
131.99956	13
132.09364	4
133.01379	13
133.06486	2
133.92248	1
134.01318	4
134.01556	24
134.03648	4
134.06024	1
134.10907	4
135.01036	6
135.02293	21
136.03105	66
137.03882	600
137.05997	3
137.09613	2
138.04656	186
139.03902	6
139.05437	36
139.92564	18
140.05777	4
140.06223	1
140.93361	222
141.92392	18
141.94154	40
142.06511	4
142.07776	13
142.93144	215
142.94936	8
143.93916	43
144.05699	2
144.08108	8
144.09358	8
145.04703	3
145.06486	5
145.08876	1
145.10138	9
146.07245	11
146.10469	2
146.93849	10
147.04422	4
147.06618	12
147.08057	7
147.11693	2
147.43732	18
147.90976	2
148.05226	2
148.06532	3
148.11223	3
148.1248	2
148.918	2
148.93799	14
149.02336	11
149.05952	5
149.13271	2
149.43524	55
149.93704	6
150.14023	2
151.05421	2
151.92581	22
152.04698	1
152.06204	6
152.08322	4
152.93327	48
153.0699	7
153.09125	2
153.92362	2
153.94107	64
154.06235	5
154.93141	91
154.94492	6
155.06041	5
155.08572	12
155.93916	90
156.09355	5
157.08893	3
157.10103	10
158.10454	2
158.9664	1
159.08049	3
159.11705	3
160.08832	2
161.13258	3
161.93867	18
162.03105	2
162.0676	1
162.14014	3
162.93755	40
162.96991	7
163.05417	4
163.14803	2
163.92541	7
163.93666	13
163.96936	4
164.9337	9
165.07013	12
165.94153	3
166.07756	4
166.92795	9
167.03389	2
168.08096	4
168.09325	8
168.98862	4
169.10121	12
169.93631	30
170.0963	3
170.84419	10
171.08054	3
171.11705	3
172.12471	1
172.84196	6
173.13258	5
174.04651	1
174.1402	3
174.83974	2
175.07578	3
175.97745	2
176.15611	2
177.16336	5
177.95662	2
177.98529	1
178.96475	2
179.0855	5
179.96419	1
180.04196	2
180.94383	18
181.06473	2
181.10112	2
182.10945	6
183.10469	2
184.08797	7
184.11214	5
184.12488	6
185.09608	12
185.13258	4
186.09966	4
187.05435	3
187.14854	4
188.15624	4
188.93364	6
189.07016	1
189.16365	2
190.07329	2
190.07752	2
190.0986	3
190.94879	19
191.00128	33
191.10696	2
191.17929	3
192.09335	4
192.11479	2
192.99803	5
193.01685	6
193.04994	7
193.97948	2
194.01596	1
194.10883	3
195.11679	2
196.11191	2
196.12444	1
196.84204	64
198.10425	2
198.84033	34
200.89423	73
201.07021	3
201.16359	4
201.39577	8
201.89281	209
202.07758	3
202.39497	25
202.89188	206
203.39374	22
203.89056	62
204.11504	3
204.39313	9
205.10147	3
206.90491	3
207.10217	4
209.13257	6
211.14838	3
212.08336	12
213.09076	1
213.16452	3
214.94913	8
215.95737	71
216.18755	2
216.94693	64
216.965	73
217.9554	172
218.84409	5
218.96315	78
219.85175	6
219.96646	8
220.84189	9
220.85948	93
221.1328	3
221.85011	23
222.8573	75
223.84792	15
223.86063	8
224.85535	90
225.16414	1
226.04204	1
227.03987	2
227.12802	3
229.19505	7
230.12991	2
231.21104	2
231.85185	17
232.84232	5
233.84943	55
234.85846	7
235.84747	27
241.19499	6
241.84685	3
243.95158	69
244.95479	6
245.94951	49
245.96794	20
246.95351	5
247.84735	9
248.85452	14
248.98831	6
249.84438	6
249.98877	4
250.96851	4
251.84233	27
252.85036	14
253.19488	2
255.12266	1
255.21126	3
257.22635	2
260.86584	26
262.86374	43
264.86157	16
266.99921	3
267.01685	4
267.06955	1
268.99597	1
270.23386	10
271.24286	29
272.2453	5
274.96442	5
283.04773	4
294.87515	105
295.24262	11
295.8656	14
295.87921	24
296.87314	375
297.87628	58
298.76959	60
298.87076	249
299.8743	19
300.06125	2
300.76816	66
302.76569	186
303.76916	10
304.76462	66
310.97138	2
311.27328	3
312.76856	1
314.93048	1
321.86206	10
322.87009	12
323.8623	9
323.87811	47
324.86893	37
324.88147	20
324.98666	6
325.87521	180
326.76578	7
326.86575	21
326.88004	25
326.96545	5
327.03549	11
327.87332	109
328.76254	66
330.76163	57
332.75922	19
342.77261	11
343.0137	2
350.87671	24
352.87448	45
353.87814	7
354.87155	1
361.02661	1
365.32022	17
366.32294	4
374.78262	16
385.02268	2
388.00586	1
399.00577	1
400.98505	2
401.78778	125
402.79227	46
403.78555	999
404.78897	133
405.78513	530
406.78732	123
407.78195	236
408.37479	3
408.78497	43
409.37784	4
415.03665	3
416.03723	2
454.7103	7
461.08896	1
475.14328	1
479.69766	3
481.69717	14
483.69492	24
483.71204	85
484.71564	10
485.71063	11
486.71494	17
487.70749	87
489.70508	20
490.12421	2
549.16455	3
559.62714	6
560.62927	13
562.62683	56
563.14648	1
563.62372	909
564.62683	130
565.62189	749
566.62323	114
567.61981	293
568.62268	5
569.61706	87
570.61829	11
