Mass spectrum: DEP; GC-EI-FT; MS; Positive
Name: DEP
Name: Diethyl phthalate
Class: Non-Natural Product; Phthalate
Formula: C12H14O4
Exact mass: 222.08921
SMILES: CCOC(=O)C1=CC=CC=C1C(=O)OCC
InChI: InChI=1S/C12H14O4/c1-3-15-11(13)9-7-5-6-8-10(9)12(14)16-4-2/h5-8H,3-4H2,1-2H3
Instrument: Thermo Scientific Q Exactive GC Hybrid Quadrupol-Orbitrap
Instrument type: GC-EI-FT
Ms type: MS
Ion mode: POSITIVE
Base peak: 149.0234
m/z	relative intensity
50.01551	6
53.03861	6
54.04649	11
57.03356	6
57.0699	4
63.02304	6
64.03082	2
67.0542	11
68.0621	4
70.07776	19
71.04913	5
71.08559	3
73.04693	4
74.01522	13
75.02298	4
76.03082	36
77.03859	17
79.05425	1
81.06988	41
82.07775	16
83.04929	3
83.08566	13
84.05703	13
85.10126	5
87.04411	6
91.05424	29
92.0258	4
94.03708	8
94.07787	35
95.04919	2
96.09338	16
98.03642	3
103.01798	2
104.062	4
105.03362	45
105.07002	23
107.04929	10
107.08556	2
111.11692	4
115.05424	9
117.07001	9
119.01302	8
120.02064	1
120.0934	8
121.02831	35
121.06515	5
122.03642	115
123.03959	11
126.04626	4
129.06993	10
129.09119	8
130.07753	18
131.04927	5
132.02084	19
133.01349	3
133.06494	18
133.10112	5
134.06822	2
134.10906	2
135.04408	38
135.11691	5
137.09619	7
139.05447	9
142.0779	7
144.08067	8
145.06491	2
147.00728	6
147.11691	8
148.0155	18
148.12486	2
148.99173	3
149.02344	999
149.05955	46
149.13237	7
150.02675	61
150.06772	3
151.07114	12
155.06045	7
161.13272	10
164.08328	1
166.07764	4
167.08556	5
169.10138	3
176.04701	86
177.05479	117
177.09093	14
178.06313	9
183.11674	5
187.14783	13
191.08577	11
193.0501	7
195.06528	6
202.07787	5
215.08554	3
221.08046	14
265.0202	5
