Mass spectrum: F3; GC-EI-FT; MS; Positive
Name: F3
Name: 2,4,6-Trimethyl-2,4,6-tris(3,3,3-trifluoropropyl)cyclotrisiloxane
Class: Non-Natural Product; Siloxane
Formula: C12H21F9O3Si3
Exact mass: 468.06548
SMILES: C[Si]1(O[Si](O[Si](O1)(C)CCC(F)(F)F)(C)CCC(F)(F)F)CCC(F)(F)F
InChI: InChI=1S/C12H21F9O3Si3/c1-25(7-4-10(13,14)15)22-26(2,8-5-11(16,17)18)24-27(3,23-25)9-6-12(19,20)21/h4-9H2,1-3H3
Instrument: Thermo Scientific Q Exactive GC Hybrid Quadrupol-Orbitrap
Instrument type: GC-EI-FT
Ms type: MS
Ion mode: POSITIVE
Base peak: 158.9903
m/z	relative intensity
55.01789	4
59.02916	104
61.01044	4
63.0061	19
68.99468	4
75.02606	139
77.02173	343
78.02755	182
80.99669	438
81.99625	28
89.02176	32
92.99673	7
99.00729	35
109.02798	149
113.00292	38
115.00105	29
117.01665	85
120.99161	1
128.94345	9
130.95915	11
133.01158	6
135.02722	17
137.02284	490
139.01974	19
140.96341	34
154.99901	31
156.99464	91
158.99028	999
159.98987	109
161.96918	7
166.94466	17
170.91956	15
175.00522	9
177.00087	34
180.96027	15
184.93521	16
194.94614	1
196.97141	15
198.95084	43
200.94633	13
202.92574	7
212.98648	10
214.98199	240
216.97906	23
218.95706	85
222.93199	17
232.95291	1
236.96768	18
237.98363	47
240.95901	18
244.9341	1
