Mass spectrum: D-(-)-Mannitol; LC-ESI-QFT; MS2; CE:20; [M-H]-
Name: D-(-)-Mannitol
Name: (2R,3R,4R,5R)-hexane-1,2,3,4,5,6-hexol
Class: Natural product
Formula: C6H14O6
Exact mass: 182.07904
SMILES: C([C@H]([C@H]([C@@H]([C@@H](CO)O)O)O)O)O
InChI: InChI=1S/C6H14O6/c7-1-3(9)5(11)6(12)4(10)2-8/h3-12H,1-2H2/t3-,4-,5-,6-/m1/s1
Instrument:  QExactive Plus Orbitrap
Instrument type: LC-ESI-QFT
Ms type: MS2
Ion mode: NEGATIVE
Collision energy: 20
Retention time: 4.79
Precursor m/z: 181.0715
Precursor type: [M-H]-
m/z	relative intensity
59.01351	182
68.99558	4
73.0294	98
75.00866	2
82.96904	1
85.02941	37
89.02435	149
96.96004	3
99.9258	56
102.02772	7
105.0171	16
113.02437	26
114.93398	8
116.92846	156
119.03485	29
160.93536	2
163.06108	30
179.05611	2
181.07159	999
